Version 4
SHEET 1 880 680
FLAG 32 64 Vin
FLAG 144 128 Vin
FLAG 288 128 Vin
FLAG 432 128 Vin
FLAG 576 128 Vin
SYMBOL cktsym\\nmos3 208 128 R0
SYMATTR InstName U1
SYMBOL cktsym\\vsource -80 128 R0
SYMATTR Value 5
SYMATTR InstName Vdd
SYMBOL cktsym\\vsource 32 128 R0
SYMATTR Value 1
SYMATTR InstName Vin
SYMBOL cktsym\\gnd -80 192 R0
SYMATTR InstName U3
SYMBOL cktsym\\gnd 32 192 R0
SYMATTR InstName U4
SYMBOL cktsym\\vdd -80 64 R0
SYMATTR InstName U5
SYMBOL cktsym\\ammeter2 208 48 R0
SYMATTR InstName I1
SYMBOL cktsym\\gnd 208 192 R0
SYMATTR InstName U8
SYMBOL cktsym\\vdd 208 48 R0
SYMATTR InstName U9
SYMBOL cktsym\\nmos3 352 128 R0
SYMATTR InstName U2
SYMBOL cktsym\\ammeter2 352 48 R0
SYMATTR InstName I2
SYMBOL cktsym\\gnd 352 192 R0
SYMATTR InstName U6
SYMBOL cktsym\\vdd 352 48 R0
SYMATTR InstName U7
SYMBOL cktsym\\nmos3 496 128 R0
SYMATTR InstName U10
SYMBOL cktsym\\ammeter2 496 48 R0
SYMATTR InstName I3
SYMBOL cktsym\\gnd 496 192 R0
SYMATTR InstName U11
SYMBOL cktsym\\vdd 496 48 R0
SYMATTR InstName U12
SYMBOL cktsym\\nmos3 640 128 R0
SYMATTR InstName U13
SYMBOL cktsym\\ammeter2 640 48 R0
SYMATTR InstName I4
SYMBOL cktsym\\gnd 640 192 R0
SYMATTR InstName U14
SYMBOL cktsym\\vdd 640 48 R0
SYMATTR InstName U15
TEXT -104 288 Left 2 !.dc Vin 0 5 0.01
TEXT -104 256 Left 2 !.include engr2420.sub
