Version 4
SHEET 1 880 680
WIRE 352 48 208 48
WIRE 208 64 208 48
WIRE 352 64 352 48
WIRE 656 64 656 48
WIRE 128 128 128 112
WIRE 144 128 128 128
WIRE 288 128 144 128
WIRE 416 128 416 112
WIRE 432 128 416 128
WIRE 576 128 576 112
WIRE 592 128 576 128
WIRE 416 256 416 128
WIRE 432 256 416 256
FLAG 32 64 Vin
FLAG 496 48 Vin
FLAG 208 32 Vin
FLAG 656 32 Vin
SYMBOL cktsym\\nmos3 208 128 R0
SYMATTR InstName U1
SYMBOL cktsym\\vsource -80 128 R0
SYMATTR Value 5
SYMATTR InstName Vdd
SYMBOL cktsym\\vsource 32 128 R0
SYMATTR Value 1
SYMATTR InstName Vin
SYMBOL cktsym\\gnd -80 192 R0
SYMATTR InstName U3
SYMBOL cktsym\\gnd 32 192 R0
SYMATTR InstName U4
SYMBOL cktsym\\vdd -80 64 R0
SYMATTR InstName U5
SYMBOL cktsym\\ammeter2 208 32 R0
SYMATTR InstName Ipar
SYMBOL cktsym\\gnd 208 192 R0
SYMATTR InstName U8
SYMBOL cktsym\\nmos3 352 128 R0
SYMATTR InstName U2
SYMBOL cktsym\\gnd 352 192 R0
SYMATTR InstName U6
SYMBOL cktsym\\vdd 128 112 R0
SYMATTR InstName U7
SYMBOL cktsym\\nmos3 496 128 R0
SYMATTR InstName U10
SYMBOL cktsym\\ammeter2 496 48 R0
SYMATTR InstName Iser
SYMBOL cktsym\\vdd 416 112 R0
SYMATTR InstName U12
SYMBOL cktsym\\nmos3 496 256 R0
SYMATTR InstName U13
SYMBOL cktsym\\gnd 496 320 R0
SYMATTR InstName U14
SYMBOL cktsym\\nmos3 656 128 R0
SYMATTR InstName U9
SYMBOL cktsym\\ammeter2 656 32 R0
SYMATTR InstName Ialone
SYMBOL cktsym\\gnd 656 192 R0
SYMATTR InstName U11
SYMBOL cktsym\\vdd 576 112 R0
SYMATTR InstName U15
TEXT -104 288 Left 2 !.dc Vin 0 5 0.01
TEXT -104 256 Left 2 !.include engr2420.sub
