Version 4
SHEET 1 880 680
WIRE 656 32 480 32
WIRE 800 32 656 32
WIRE 480 48 480 32
WIRE 576 96 576 80
WIRE 592 96 576 96
WIRE 736 96 592 96
WIRE 128 128 128 112
WIRE 144 128 128 128
WIRE 288 128 144 128
WIRE 352 192 208 192
WIRE 208 208 208 192
WIRE 656 224 656 176
WIRE 800 224 800 176
SYMBOL cktsym\\nmos3 208 128 R0
SYMATTR InstName U1
SYMBOL cktsym\\vsource -80 128 R0
SYMATTR Value 5
SYMATTR InstName Vdd
SYMBOL cktsym\\gnd -80 192 R0
SYMATTR InstName U3
SYMBOL cktsym\\vdd -80 64 R0
SYMATTR InstName U5
SYMBOL cktsym\\ammeter2 208 48 R0
SYMATTR InstName Ia1
SYMBOL cktsym\\nmos3 352 128 R0
SYMATTR InstName U2
SYMATTR SpiceLine M={foo}
SYMBOL cktsym\\vdd 128 112 R0
SYMATTR InstName U7
SYMBOL cktsym\\ammeter2 352 48 R0
SYMATTR InstName Ia2
SYMBOL cktsym\\vdd 208 48 R0
SYMATTR InstName U4
SYMBOL cktsym\\vdd 352 48 R0
SYMATTR InstName U16
SYMBOL cktsym\\isource 208 272 R0
WINDOW 123 0 0 Left 0
WINDOW 39 0 0 Left 0
SYMATTR Value 0
SYMATTR InstName IinA
SYMBOL cktsym\\gnd 208 336 R0
SYMATTR InstName U6
SYMBOL cktsym\\nmos3 656 96 R0
SYMATTR InstName U8
SYMBOL cktsym\\ammeter2 656 160 R0
SYMATTR InstName Ib1
SYMBOL cktsym\\nmos3 800 96 R0
SYMATTR InstName U9
SYMATTR SpiceLine M={foo}
SYMBOL cktsym\\vdd 576 80 R0
SYMATTR InstName U10
SYMBOL cktsym\\ammeter2 800 160 R0
SYMATTR InstName Ib2
SYMBOL cktsym\\gnd 656 224 R0
SYMATTR InstName U12
SYMBOL cktsym\\gnd 800 224 R0
SYMATTR InstName U15
SYMBOL cktsym\\isource 480 112 R180
WINDOW 123 0 0 Left 0
WINDOW 39 0 0 Left 0
SYMATTR Value 0
SYMATTR InstName IinB
SYMBOL cktsym\\gnd 480 176 R0
SYMATTR InstName U14
TEXT 456 288 Left 2 !.dc IinA 10n 100u 1n
TEXT -104 256 Left 2 !.include engr2420.sub
TEXT -104 280 Left 2 !.param foo=1.05
