Version 4
SHEET 1 880 680
WIRE 160 0 144 0
WIRE 144 16 144 0
WIRE 144 224 144 208
WIRE 160 224 144 224
FLAG 32 64 Vin
FLAG 224 -80 Vin
FLAG 224 288 Vin
SYMBOL cktsym\\nmos3 224 224 R0
SYMATTR InstName U1
SYMBOL cktsym\\pmos3 224 0 R0
SYMATTR InstName U2
SYMBOL cktsym\\vsource -80 128 R0
SYMATTR Value 5
SYMATTR InstName Vdd
SYMBOL cktsym\\vsource 32 128 R0
SYMATTR Value 1
SYMATTR InstName Vin
SYMBOL cktsym\\gnd -80 192 R0
SYMATTR InstName U3
SYMBOL cktsym\\gnd 32 192 R0
SYMATTR InstName U4
SYMBOL cktsym\\vdd -80 64 R0
SYMATTR InstName U5
SYMBOL cktsym\\ammeter2 224 144 R0
SYMATTR InstName In
SYMBOL cktsym\\ammeter2 224 -80 R0
SYMATTR InstName Ip
SYMBOL cktsym\\gnd 224 64 R0
SYMATTR InstName U7
SYMBOL cktsym\\vdd 224 144 R0
SYMATTR InstName U9
SYMBOL cktsym\\gnd 144 16 R0
SYMATTR InstName U6
SYMBOL cktsym\\vdd 144 208 R0
SYMATTR InstName U8
TEXT -88 360 Left 2 !.dc Vin 0 5 0.01
TEXT -88 328 Left 2 !.include engr2420.sub
