* Z:\home\shashank\repos\circuits-lab\lab5\datawork\ltspice\lab5e3p.asc
XU1 P001 Vg P002 nmos3
XU2 P003 Vg P004 pmos3
Vdd P005 P006 5
Vin Vin P007 1
XU3 P006 gnd
XU4 P007 gnd
XU5 P005 vdd
V§In Vin P001 0
V§Ip Vin P004 0
XU7 P003 gnd
XU10 P002 gnd
Vg Vg P008 1
XU12 P008 gnd
.dc Vin 0 5 0.01 Vg list -0.8 -0.7 0
.include engr2420.sub
.backanno
.end
