Version 4
SHEET 1 880 680
FLAG 32 64 Vin
FLAG -64 64 Vg
FLAG 160 0 Vg
FLAG 160 224 Vg
FLAG 224 -80 Vin
FLAG 224 144 Vin
SYMBOL cktsym\\nmos3 224 224 R0
SYMATTR InstName U1
SYMBOL cktsym\\pmos3 224 0 R0
SYMATTR InstName U2
SYMBOL cktsym\\vsource -176 128 R0
SYMATTR Value 5
SYMATTR InstName Vdd
SYMBOL cktsym\\vsource 32 128 R0
SYMATTR Value 1
SYMATTR InstName Vin
SYMBOL cktsym\\gnd -176 192 R0
SYMATTR InstName U3
SYMBOL cktsym\\gnd 32 192 R0
SYMATTR InstName U4
SYMBOL cktsym\\vdd -176 64 R0
SYMATTR InstName U5
SYMBOL cktsym\\ammeter2 224 144 R0
SYMATTR InstName In
SYMBOL cktsym\\ammeter2 224 -80 R0
SYMATTR InstName Ip
SYMBOL cktsym\\gnd 224 64 R0
SYMATTR InstName U7
SYMBOL cktsym\\gnd 224 288 R0
SYMATTR InstName U10
SYMBOL cktsym\\vsource -64 128 R0
SYMATTR Value 1
SYMATTR InstName Vg
SYMBOL cktsym\\gnd -64 192 R0
SYMATTR InstName U12
TEXT -88 360 Left 2 !.dc Vin 0 5 0.01 Vg list -0.8 -0.7 0
TEXT -88 328 Left 2 !.include engr2420.sub
