Version 4
SHEET 1 880 680
WIRE 240 -128 224 -128
WIRE 512 -128 240 -128
WIRE 240 -64 240 -128
WIRE 240 -64 160 -64
WIRE 352 112 352 48
WIRE 352 112 288 112
WIRE 576 112 576 -64
WIRE 672 112 576 112
WIRE 160 128 160 -64
WIRE 288 128 288 112
WIRE 224 272 160 272
WIRE 288 272 224 272
WIRE 224 288 224 272
WIRE 416 288 416 112
WIRE 496 288 416 288
WIRE 576 288 576 112
WIRE 496 352 496 288
WIRE 496 352 480 352
WIRE 512 352 496 352
FLAG -112 224 Vin
FLAG -112 32 V2
FLAG -224 224 Vb
FLAG 160 368 Vb
FLAG 96 208 Vin
FLAG 224 272 V
FLAG 352 208 Vout
FLAG 672 112 Vout
SYMBOL cktsym\\nmos3 160 208 R0
SYMATTR InstName M1
SYMBOL cktsym\\nmos3 288 208 M0
SYMATTR InstName M2
SYMBOL cktsym\\nmos3 224 368 R0
SYMATTR InstName Mb
SYMBOL cktsym\\pmos3 416 48 R0
SYMATTR InstName M6
SYMBOL cktsym\\pmos3 288 48 M0
SYMATTR InstName M5
SYMBOL cktsym\\vdd 288 -16 R0
SYMATTR InstName U6
SYMBOL cktsym\\vdd 416 -16 R0
SYMATTR InstName U7
SYMBOL cktsym\\vdd -224 32 R0
SYMATTR InstName U8
SYMBOL cktsym\\gnd -224 160 R0
SYMATTR InstName U9
SYMBOL cktsym\\gnd 224 432 R0
SYMATTR InstName U10
SYMBOL cktsym\\vsource -224 96 R0
SYMATTR Value 5
SYMATTR InstName Vdd
SYMBOL cktsym\\ammeter2 160 128 R0
SYMATTR InstName I1
SYMBOL cktsym\\ammeter2 288 128 R0
SYMATTR InstName I2
SYMBOL cktsym\\ammeter2 224 288 R0
SYMATTR InstName Ib
SYMBOL cktsym\\gnd -112 160 R0
SYMATTR InstName U12
SYMBOL cktsym\\vsource -112 96 R0
SYMATTR Value 4
SYMATTR InstName V2
SYMBOL cktsym\\gnd -224 352 R0
SYMATTR InstName U14
SYMBOL cktsym\\vsource -224 288 R0
SYMATTR Value 0.7
SYMATTR InstName Vb
SYMBOL cktsym\\gnd -112 352 R0
SYMATTR InstName U16
SYMBOL cktsym\\vsource -112 288 R0
WINDOW 123 0 0 Left 0
WINDOW 39 0 0 Left 0
SYMATTR InstName V1
SYMATTR Value PULSE(2.5 4.5 1m 1u 1u 8m 10m 1)
SYMBOL cktsym\\pmos3 576 -128 R0
SYMATTR InstName M4
SYMBOL cktsym\\pmos3 160 -128 M0
SYMATTR InstName M3
SYMBOL cktsym\\vdd 160 -192 R0
SYMATTR InstName U1
SYMBOL cktsym\\vdd 576 -192 R0
SYMATTR InstName U2
SYMBOL cktsym\\nmos3 416 352 M0
SYMATTR InstName M7
SYMBOL cktsym\\nmos3 576 352 R0
SYMATTR InstName M8
SYMBOL cktsym\\gnd 416 416 R0
SYMATTR InstName U3
SYMBOL cktsym\\gnd 576 416 R0
SYMATTR InstName U4
SYMBOL cktsym\\capacitor 672 176 R0
SYMATTR Value 1n
SYMATTR InstName C1
SYMBOL cktsym\\gnd 672 240 R0
SYMATTR InstName U5
TEXT -240 432 Left 2 !.include engr2420.sub
TEXT -240 456 Left 2 !.tran 0 20m 0 ;
