Version 4
SHEET 1 880 680
WIRE -208 208 -208 176
WIRE -96 208 -208 208
WIRE -208 240 -208 208
WIRE -96 304 -96 208
WIRE -96 304 -144 304
WIRE -48 304 -96 304
WIRE -208 400 -208 368
WIRE -112 400 -208 400
WIRE 16 400 16 368
WIRE 64 400 16 400
WIRE -208 416 -208 400
WIRE 16 416 16 400
WIRE -112 480 -112 400
WIRE -112 480 -144 480
SYMBOL cktsym\\npn -208 304 M0
SYMATTR Value MAT14
SYMATTR InstName Q1
SYMBOL cktsym\\isource -208 112 R0
WINDOW 123 0 0 Left 0
WINDOW 39 0 0 Left 0
SYMATTR Value 1µ
SYMATTR InstName Ix
SYMBOL cktsym\\gnd 128 464 R0
SYMATTR InstName U2
SYMBOL cktsym\\vdd 16 240 R0
SYMATTR InstName U3
SYMBOL cktsym\\ammeter2 128 320 R0
SYMATTR InstName Iz
SYMBOL cktsym\\npn -208 480 M0
SYMATTR Value MAT14
SYMATTR InstName Q2
SYMBOL cktsym\\npn 16 304 R0
SYMATTR Value MAT14
SYMATTR InstName Q3
SYMBOL cktsym\\npn 128 400 R0
SYMATTR Value MAT14
SYMATTR InstName Q4
SYMBOL cktsym\\isource 16 480 R0
WINDOW 123 0 0 Left 0
WINDOW 39 0 0 Left 0
SYMATTR Value 1µ
SYMATTR InstName Iy
SYMBOL cktsym\\gnd -208 544 R0
SYMATTR InstName U1
SYMBOL cktsym\\vdd -208 48 R0
SYMATTR InstName U4
SYMBOL cktsym\\vdd 128 320 R0
SYMATTR InstName U5
SYMBOL cktsym\\gnd 16 544 R0
SYMATTR InstName U6
SYMBOL cktsym\\vsource -352 304 R0
SYMATTR Value 5
SYMATTR InstName Vcc
SYMBOL cktsym\\vdd -352 240 R0
SYMATTR InstName U7
SYMBOL cktsym\\gnd -352 368 R0
SYMATTR InstName U8
TEXT -32 120 Left 2 !.include engr2420.sub
TEXT -384 592 Left 2 !.dc dec Ix 10n 10m 10 Iy list   1u 10u 100u
