Version 4
SHEET 1 880 680
WIRE 224 112 224 48
WIRE 224 112 160 112
WIRE 304 112 288 112
WIRE 368 112 320 112
WIRE 160 128 160 112
WIRE 288 128 288 112
WIRE 224 272 160 272
WIRE 288 272 224 272
WIRE 224 288 224 272
FLAG -48 240 V1
FLAG -48 48 V2
FLAG -160 240 Vb
FLAG 160 368 Vb
FLAG 96 208 V1
FLAG 352 208 V2
FLAG 368 112 Vout
SYMBOL cktsym\\nmos3 160 208 R0
SYMATTR InstName U1
SYMBOL cktsym\\nmos3 288 208 M0
SYMATTR InstName U2
SYMBOL cktsym\\nmos3 224 368 R0
SYMATTR InstName U3
SYMBOL cktsym\\pmos3 288 48 R0
SYMATTR InstName U4
SYMBOL cktsym\\pmos3 160 48 M0
SYMATTR InstName U5
SYMBOL cktsym\\vdd 160 -16 R0
SYMATTR InstName U6
SYMBOL cktsym\\vdd 288 -16 R0
SYMATTR InstName U7
SYMBOL cktsym\\vdd -160 48 R0
SYMATTR InstName U8
SYMBOL cktsym\\gnd -160 176 R0
SYMATTR InstName U9
SYMBOL cktsym\\gnd 224 432 R0
SYMATTR InstName U10
SYMBOL cktsym\\vsource -160 112 R0
SYMATTR Value 5
SYMATTR InstName Vdd
SYMBOL cktsym\\ammeter2 160 128 R0
SYMATTR InstName V2
SYMBOL cktsym\\ammeter2 288 128 R0
SYMATTR InstName V3
SYMBOL cktsym\\ammeter2 224 288 R0
SYMATTR InstName V4
SYMBOL cktsym\\gnd -48 176 R0
SYMATTR InstName U12
SYMBOL cktsym\\vsource -48 112 R0
SYMATTR Value 4
SYMATTR InstName V2
SYMBOL cktsym\\gnd -160 368 R0
SYMATTR InstName U14
SYMBOL cktsym\\vsource -160 304 R0
SYMATTR Value 0.7
SYMATTR InstName Vb
SYMBOL cktsym\\gnd -48 368 R0
SYMATTR InstName U16
SYMBOL cktsym\\vsource -48 304 R0
SYMATTR InstName V1
SYMBOL cktsym\\ammeter2 304 112 R270
WINDOW 0 18 8 VTop 2
SYMATTR InstName V5
TEXT 328 352 Left 2 !.include engr2420.sub
