* C:\users\manu\Desktop\Classes\S2020\circuits-lab\lab8\datawork\ltspice\exp3.asc
XM1 P001 Vin V nmos3
XM2 P002 Vout V nmos3
XMb P003 Vb P004 nmos3
XM4 N002 N001 P005 pmos3
XM3 N001 N001 P006 pmos3
XU6 P006 vdd
XU7 P005 vdd
XU8 P007 vdd
XU9 P008 gnd
XU10 P004 gnd
Vdd P007 P008 5
V§I1 N001 P001 0
V§I2 N002 P002 0
V§Ib V P003 0
XU14 P009 gnd
Vb Vb P009 0.7
XU16 P010 gnd
Vin Vin P010 0
V§Iout N002 Vout 0
.include engr2420.sub
.dc Vin 0 5 .01 ;
.backanno
.end
