Version 4
SHEET 1 896 680
WIRE 288 192 224 192
WIRE 352 192 288 192
FLAG 160 128 V1
FLAG 416 128 V2
FLAG 288 192 V
FLAG 224 256 Vb
FLAG 32 48 Vb
FLAG -80 256 V1
FLAG 32 256 V2
SYMBOL cktsym\\nmos3 224 128 R0
SYMATTR InstName M1
SYMBOL cktsym\\vsource -80 112 R0
SYMATTR Value 5
SYMATTR InstName Vdd
SYMBOL cktsym\\gnd -80 176 R0
SYMATTR InstName U3
SYMBOL cktsym\\vdd -80 48 R0
SYMATTR InstName U5
SYMBOL cktsym\\ammeter2 224 48 R0
SYMATTR InstName I1
SYMBOL cktsym\\nmos3 352 128 M0
SYMATTR InstName M2
SYMBOL cktsym\\ammeter2 352 48 R0
SYMATTR InstName I2
SYMBOL cktsym\\vdd 224 48 R0
SYMATTR InstName U4
SYMBOL cktsym\\vdd 352 48 R0
SYMATTR InstName U16
SYMBOL cktsym\\gnd 288 320 R0
SYMATTR InstName U6
SYMBOL cktsym\\nmos3 288 256 R0
SYMATTR InstName Mb
SYMBOL cktsym\\vsource 32 112 R0
SYMATTR Value 0.7
SYMATTR InstName Vb
SYMBOL cktsym\\gnd 32 176 R0
SYMATTR InstName U8
SYMBOL cktsym\\vsource 32 320 R0
SYMATTR Value 5
SYMATTR InstName V2
SYMBOL cktsym\\gnd 32 384 R0
SYMATTR InstName U10
SYMBOL cktsym\\vsource -80 320 R0
SYMATTR Value 5
SYMATTR InstName V1
SYMBOL cktsym\\gnd -80 384 R0
SYMATTR InstName U12
TEXT 120 384 Left 2 !.dc V1 0 5 0.01 V2 list 4 4.3 4.5 Vb list .6 1.5
TEXT 120 408 Left 2 !.include engr2420.sub
