Version 4
SHEET 1 896 680
WIRE 288 192 224 192
WIRE 352 192 288 192
FLAG 160 128 V1
FLAG 416 128 V2
FLAG 288 192 V
FLAG 224 256 Vb
SYMBOL cktsym\\nmos3 224 128 R0
SYMATTR InstName U1
SYMBOL cktsym\\vsource -80 128 R0
SYMATTR Value 5
SYMATTR InstName Vdd
SYMBOL cktsym\\gnd -80 192 R0
SYMATTR InstName U3
SYMBOL cktsym\\vdd -80 64 R0
SYMATTR InstName U5
SYMBOL cktsym\\ammeter2 224 48 R0
SYMATTR InstName I1
SYMBOL cktsym\\nmos3 352 128 M0
SYMATTR InstName U2
SYMATTR SpiceLine M={foo}
SYMBOL cktsym\\ammeter2 352 48 R0
SYMATTR InstName I2
SYMBOL cktsym\\vdd 224 48 R0
SYMATTR InstName U4
SYMBOL cktsym\\vdd 352 48 R0
SYMATTR InstName U16
SYMBOL cktsym\\gnd 288 320 R0
SYMATTR InstName U6
SYMBOL cktsym\\nmos3 288 256 R0
SYMATTR InstName U7
SYMBOL cktsym\\vsource 32 128 R0
SYMATTR Value 0.7
SYMATTR InstName Vb
SYMBOL cktsym\\gnd 32 192 R0
SYMATTR InstName U8
SYMBOL cktsym\\vdd 32 64 R0
SYMATTR InstName U9
SYMBOL cktsym\\vsource 32 320 R0
SYMATTR Value 5
SYMATTR InstName V2
SYMBOL cktsym\\gnd 32 384 R0
SYMATTR InstName U10
SYMBOL cktsym\\vdd 32 256 R0
SYMATTR InstName U11
SYMBOL cktsym\\vsource -80 320 R0
SYMATTR Value 5
SYMATTR InstName V1
SYMBOL cktsym\\gnd -80 384 R0
SYMATTR InstName U12
SYMBOL cktsym\\vdd -80 256 R0
SYMATTR InstName U13
TEXT 120 384 Left 2 !.dc V1 0 5 0.01 V2 list 4 4.3 4.5
TEXT 120 408 Left 2 !.include engr2420.sub
