Version 4
SHEET 1 896 680
WIRE 288 160 224 160
WIRE 352 160 288 160
WIRE 224 336 224 304
WIRE 352 336 352 304
FLAG 160 224 V1
FLAG 416 224 V2
FLAG 288 160 V
FLAG 224 96 Vb
FLAG -80 256 V1
FLAG 32 64 Vb
FLAG 32 256 V2
SYMBOL cktsym\\vsource -80 128 R0
SYMATTR Value 5
SYMATTR InstName Vdd
SYMBOL cktsym\\gnd -80 192 R0
SYMATTR InstName U3
SYMBOL cktsym\\vdd -80 64 R0
SYMATTR InstName U5
SYMBOL cktsym\\vsource 32 128 R0
SYMATTR Value 4.2
SYMATTR InstName Vb
SYMBOL cktsym\\gnd 32 192 R0
SYMATTR InstName U8
SYMBOL cktsym\\vsource 32 320 R0
SYMATTR Value 5
SYMATTR InstName V2
SYMBOL cktsym\\gnd 32 384 R0
SYMATTR InstName U10
SYMBOL cktsym\\vsource -80 320 R0
SYMATTR Value 5
SYMATTR InstName V1
SYMBOL cktsym\\gnd -80 384 R0
SYMATTR InstName U12
SYMBOL cktsym\\pmos3 288 96 R0
SYMATTR InstName U14
SYMBOL cktsym\\pmos3 224 224 R0
SYMATTR InstName U15
SYMBOL cktsym\\pmos3 352 224 M0
SYMATTR InstName U17
SYMBOL cktsym\\vdd 288 32 R0
SYMATTR InstName U18
SYMBOL cktsym\\gnd 224 336 R0
SYMATTR InstName U19
SYMBOL cktsym\\gnd 352 336 R0
SYMATTR InstName U20
SYMBOL cktsym\\ammeter2 224 288 R0
SYMATTR InstName I1
SYMBOL cktsym\\ammeter2 352 288 R0
SYMATTR InstName I2
TEXT 120 384 Left 2 !.dc V1 0 5 0.01 V2 list 1 .7 .5 Vb 4.2 3.5
TEXT 120 408 Left 2 !.include engr2420.sub
