Version 4
SHEET 1 896 680
WIRE 288 192 224 192
WIRE 352 192 288 192
FLAG 160 256 V1
FLAG 416 256 V2
FLAG 288 192 V
FLAG 224 128 Vb
FLAG -80 256 V1
FLAG 32 64 Vb
FLAG 32 256 V2
SYMBOL cktsym\\vsource -80 128 R0
SYMATTR Value 5
SYMATTR InstName Vdd
SYMBOL cktsym\\gnd -80 192 R0
SYMATTR InstName U3
SYMBOL cktsym\\vdd -80 64 R0
SYMATTR InstName U5
SYMBOL cktsym\\vsource 32 128 R0
SYMATTR Value 4.2
SYMATTR InstName Vb
SYMBOL cktsym\\gnd 32 192 R0
SYMATTR InstName U8
SYMBOL cktsym\\vsource 32 320 R0
SYMATTR Value 5
SYMATTR InstName V2
SYMBOL cktsym\\gnd 32 384 R0
SYMATTR InstName U10
SYMBOL cktsym\\vsource -80 320 R0
SYMATTR Value 5
SYMATTR InstName V1
SYMBOL cktsym\\gnd -80 384 R0
SYMATTR InstName U12
SYMBOL cktsym\\pmos3 288 128 R0
SYMATTR InstName U14
SYMBOL cktsym\\pmos3 224 256 R0
SYMATTR InstName U15
SYMBOL cktsym\\pmos3 352 256 M0
SYMATTR InstName U17
SYMBOL cktsym\\vdd 288 64 R0
SYMATTR InstName U18
SYMBOL cktsym\\gnd 224 320 R0
SYMATTR InstName U19
SYMBOL cktsym\\gnd 352 320 R0
SYMATTR InstName U20
TEXT 120 384 Left 2 !.dc V1 0 5 0.01 V2 list 1 .7 .5 Vb 4.2 3.5
TEXT 120 408 Left 2 !.include engr2420.sub
