* C:\users\manu\Desktop\Classes\S2020\circuits-lab\lab7\datawork\ltspice\pexp.asc
Vdd P001 P002 5
XU3 P002 gnd
XU5 P001 vdd
Vb Vb P003 4.2
XU8 P003 gnd
V2 V2 P004 5
XU10 P004 gnd
V1 V1 P005 5
XU12 P005 gnd
XU14 V Vb P006 pmos3
XU15 P007 V1 V pmos3
XU17 P008 V2 V pmos3
XU18 P006 vdd
XU19 P007 gnd
XU20 P008 gnd
.dc V1 0 5 0.01 V2 list 1 .7 .5 Vb 4.2 3.5
.include engr2420.sub
.backanno
.end
