Version 4
SHEET 1 2000 1308
WIRE 1488 64 1408 64
WIRE 128 112 -16 112
WIRE 272 112 128 112
WIRE 432 112 272 112
WIRE 576 112 432 112
WIRE 720 112 576 112
WIRE 864 112 720 112
WIRE 1008 112 864 112
WIRE 1168 112 1008 112
WIRE 1312 112 1168 112
WIRE 1424 112 1312 112
WIRE 1424 128 1424 112
WIRE -96 176 -144 176
WIRE -64 176 -80 176
WIRE 368 176 352 176
WIRE 1104 176 1088 176
WIRE 1408 176 1408 64
WIRE 1408 176 1392 176
WIRE 1488 176 1408 176
WIRE 48 224 -32 224
WIRE 112 224 64 224
WIRE 192 224 112 224
WIRE 256 224 208 224
WIRE 336 224 256 224
WIRE 416 224 352 224
WIRE 496 224 416 224
WIRE 560 224 512 224
WIRE 640 224 560 224
WIRE 704 224 656 224
WIRE 784 224 704 224
WIRE 848 224 800 224
WIRE 928 224 848 224
WIRE 992 224 944 224
WIRE 1072 224 992 224
WIRE 1152 224 1088 224
WIRE 1232 224 1152 224
WIRE 1296 224 1248 224
WIRE 1376 224 1296 224
WIRE 1488 224 1488 192
WIRE 1488 224 1392 224
WIRE 1552 224 1488 224
WIRE 1616 224 1568 224
WIRE 1648 224 1616 224
WIRE 48 272 0 272
WIRE 144 272 64 272
WIRE 192 272 144 272
WIRE 288 272 208 272
WIRE 336 272 288 272
WIRE 448 272 352 272
WIRE 496 272 448 272
WIRE 592 272 512 272
WIRE 640 272 592 272
WIRE 736 272 656 272
WIRE 784 272 736 272
WIRE 880 272 800 272
WIRE 928 272 880 272
WIRE 1024 272 944 272
WIRE 1072 272 1024 272
WIRE 1184 272 1088 272
WIRE 1232 272 1184 272
WIRE 1328 272 1248 272
WIRE 1376 272 1328 272
WIRE 1552 272 1392 272
WIRE 1648 272 1568 272
WIRE 1680 272 1648 272
FLAG 1648 224 I
FLAG 1680 272 _I
FLAG -240 80 Vg
FLAG -16 112 Vg
SYMBOL cktsym\\nmos3 1488 128 R0
SYMATTR InstName Mend
SYMBOL cktsym\\vdd -144 176 R0
SYMATTR InstName U1
SYMBOL cktsym\\gnd 1648 272 R0
SYMATTR InstName U2
SYMBOL cktsym\\gnd 1616 224 R0
SYMATTR InstName U3
SYMBOL cktsym\\ammeter1 1552 224 R270
WINDOW 0 18 8 VTop 0
WINDOW 123 0 0 Left 0
WINDOW 39 0 0 Left 0
SYMATTR InstName I
SYMBOL cktsym\\ammeter1 1552 272 R270
WINDOW 0 18 8 VTop 0
SYMATTR InstName _I
SYMBOL cktsym\\ammeter1 -96 176 R270
WINDOW 0 18 8 VTop 0
SYMATTR InstName Iin
SYMBOL cktsym\\ammeter1 48 224 R270
WINDOW 0 18 8 VTop 0
SYMATTR InstName I1
SYMBOL cktsym\\ammeter1 48 272 R270
WINDOW 0 18 8 VTop 0
SYMATTR InstName _I1
SYMBOL unitCmos -16 176 R0
SYMATTR InstName X1
SYMBOL unitCmos 128 176 R0
SYMATTR InstName X2
SYMBOL cktsym\\vdd 48 80 R0
SYMATTR InstName U4
SYMBOL cktsym\\vsource -240 144 R0
WINDOW 123 0 0 Left 0
WINDOW 39 0 0 Left 0
SYMATTR Value 5
SYMATTR InstName Vg
SYMBOL cktsym\\vsource -240 336 R0
WINDOW 123 0 0 Left 0
WINDOW 39 0 0 Left 0
SYMATTR Value 5
SYMATTR InstName Vdd
SYMBOL cktsym\\vdd -240 272 R0
SYMATTR InstName U7
SYMBOL cktsym\\gnd -240 208 R0
SYMATTR InstName U8
SYMBOL cktsym\\gnd -240 400 R0
SYMATTR InstName U9
SYMBOL cktsym\\ammeter1 48 176 R270
WINDOW 0 18 8 VTop 0
SYMATTR InstName I1R
SYMBOL cktsym\\ammeter1 192 224 R270
WINDOW 0 18 8 VTop 0
SYMATTR InstName I2
SYMBOL cktsym\\ammeter1 192 272 R270
WINDOW 0 18 8 VTop 0
SYMATTR InstName _I2
SYMBOL unitCmos 272 176 R0
SYMATTR InstName X3
SYMBOL cktsym\\vdd 336 80 R0
SYMATTR InstName U5
SYMBOL cktsym\\ammeter1 192 176 R270
WINDOW 0 18 8 VTop 0
SYMATTR InstName I2R
SYMBOL cktsym\\ammeter1 336 224 R270
WINDOW 0 18 8 VTop 0
SYMATTR InstName I3
SYMBOL cktsym\\ammeter1 336 272 R270
WINDOW 0 18 8 VTop 0
SYMATTR InstName _I3
SYMBOL cktsym\\ammeter1 336 176 R270
WINDOW 0 18 8 VTop 0
SYMATTR InstName I3R
SYMBOL cktsym\\ammeter1 496 224 R270
WINDOW 0 18 8 VTop 0
SYMATTR InstName I4
SYMBOL cktsym\\ammeter1 496 272 R270
WINDOW 0 18 8 VTop 0
SYMATTR InstName _I4
SYMBOL unitCmos 576 176 R0
SYMATTR InstName X4
SYMBOL cktsym\\vdd 496 80 R0
SYMATTR InstName U6
SYMBOL cktsym\\ammeter1 496 176 R270
WINDOW 0 18 8 VTop 0
SYMATTR InstName I4R
SYMBOL cktsym\\ammeter1 640 224 R270
WINDOW 0 18 8 VTop 0
SYMATTR InstName I5
SYMBOL cktsym\\ammeter1 640 272 R270
WINDOW 0 18 8 VTop 0
SYMATTR InstName _I5
SYMBOL unitCmos 720 176 R0
SYMATTR InstName X5
SYMBOL cktsym\\vdd 784 80 R0
SYMATTR InstName U11
SYMBOL cktsym\\ammeter1 640 176 R270
WINDOW 0 18 8 VTop 0
SYMATTR InstName I5R
SYMBOL cktsym\\ammeter1 784 224 R270
WINDOW 0 18 8 VTop 0
SYMATTR InstName I6
SYMBOL cktsym\\ammeter1 784 272 R270
WINDOW 0 18 8 VTop 0
SYMATTR InstName _I6
SYMBOL cktsym\\ammeter1 784 176 R270
WINDOW 0 18 8 VTop 0
SYMATTR InstName I6R
SYMBOL unitCmos 432 176 R0
SYMATTR InstName X6
SYMBOL cktsym\\ammeter1 928 224 R270
WINDOW 0 18 8 VTop 0
SYMATTR InstName I7
SYMBOL cktsym\\ammeter1 928 272 R270
WINDOW 0 18 8 VTop 0
SYMATTR InstName ~I7
SYMBOL unitCmos 1008 176 R0
SYMATTR InstName X7
SYMBOL cktsym\\vdd 1072 80 R0
SYMATTR InstName U13
SYMBOL cktsym\\ammeter1 928 176 R270
WINDOW 0 18 8 VTop 0
SYMATTR InstName I7R
SYMBOL cktsym\\ammeter1 1072 224 R270
WINDOW 0 18 8 VTop 0
SYMATTR InstName I8
SYMBOL cktsym\\ammeter1 1072 272 R270
WINDOW 0 18 8 VTop 0
SYMATTR InstName _I8
SYMBOL cktsym\\ammeter1 1072 176 R270
WINDOW 0 18 8 VTop 0
SYMATTR InstName I8R
SYMBOL cktsym\\ammeter1 1232 224 R270
WINDOW 0 18 8 VTop 0
SYMATTR InstName 19
SYMBOL cktsym\\ammeter1 1232 272 R270
WINDOW 0 18 8 VTop 0
SYMATTR InstName _I9
SYMBOL unitCmos 1312 176 R0
SYMATTR InstName X8
SYMBOL cktsym\\vdd 1232 80 R0
SYMATTR InstName U15
SYMBOL cktsym\\ammeter1 1232 176 R270
WINDOW 0 18 8 VTop 0
SYMATTR InstName I9R
SYMBOL cktsym\\ammeter1 1376 224 R270
WINDOW 0 18 8 VTop 0
SYMATTR InstName I10
SYMBOL cktsym\\ammeter1 1376 272 R270
WINDOW 0 18 8 VTop 0
SYMATTR InstName _I10
SYMBOL cktsym\\ammeter1 1376 176 R270
WINDOW 0 18 8 VTop 0
SYMATTR InstName I10R
SYMBOL unitCmos 1168 176 R0
SYMATTR InstName X10
SYMBOL unitCmos 864 176 R0
SYMATTR InstName X11
SYMBOL cktsym\\vdd 192 80 R0
SYMATTR InstName U10
SYMBOL cktsym\\vdd 640 80 R0
SYMATTR InstName U12
SYMBOL cktsym\\vdd 928 80 R0
SYMATTR InstName U14
SYMBOL cktsym\\vdd 1376 80 R0
SYMATTR InstName U27
TEXT -88 344 Left 2 !.dc Vg 0 5 .01
TEXT -88 376 Left 2 !.include engr2420.sub
