Version 4
SHEET 1 2000 1308
WIRE 128 112 -16 112
WIRE 272 112 128 112
WIRE 432 112 272 112
WIRE 576 112 432 112
WIRE 720 112 576 112
WIRE 864 112 720 112
WIRE 1008 112 864 112
WIRE 1168 112 1008 112
WIRE 1312 112 1168 112
WIRE -96 176 -144 176
WIRE -64 176 -80 176
WIRE 368 176 352 176
WIRE 1104 176 1088 176
WIRE 1488 176 1392 176
WIRE 48 224 -32 224
WIRE 112 224 64 224
WIRE 192 224 112 224
WIRE 256 224 208 224
WIRE 336 224 256 224
WIRE 416 224 352 224
WIRE 496 224 416 224
WIRE 560 224 512 224
WIRE 640 224 560 224
WIRE 704 224 656 224
WIRE 784 224 704 224
WIRE 848 224 800 224
WIRE 928 224 848 224
WIRE 992 224 944 224
WIRE 1072 224 992 224
WIRE 1152 224 1088 224
WIRE 1232 224 1152 224
WIRE 1296 224 1248 224
WIRE 1376 224 1296 224
WIRE 1488 224 1392 224
WIRE 48 272 0 272
WIRE 144 272 64 272
WIRE 192 272 144 272
WIRE 288 272 208 272
WIRE 336 272 288 272
WIRE 448 272 352 272
WIRE 496 272 448 272
WIRE 592 272 512 272
WIRE 640 272 592 272
WIRE 736 272 656 272
WIRE 784 272 736 272
WIRE 880 272 800 272
WIRE 928 272 880 272
WIRE 1024 272 944 272
WIRE 1072 272 1024 272
WIRE 1184 272 1088 272
WIRE 1232 272 1184 272
WIRE 1328 272 1248 272
WIRE 1376 272 1328 272
WIRE 1488 272 1392 272
WIRE 144 448 0 448
WIRE 288 448 144 448
WIRE 448 448 288 448
WIRE 592 448 448 448
WIRE 736 448 592 448
WIRE 880 448 736 448
WIRE 1024 448 880 448
WIRE 1184 448 1024 448
WIRE 1328 448 1184 448
WIRE 384 512 368 512
WIRE 1120 512 1104 512
WIRE 1472 512 1408 512
WIRE -16 560 -64 560
WIRE 64 560 -16 560
WIRE 128 560 80 560
WIRE 208 560 128 560
WIRE 272 560 224 560
WIRE 352 560 272 560
WIRE 432 560 368 560
WIRE 512 560 432 560
WIRE 576 560 528 560
WIRE 656 560 576 560
WIRE 720 560 672 560
WIRE 800 560 720 560
WIRE 864 560 816 560
WIRE 944 560 864 560
WIRE 1008 560 960 560
WIRE 1088 560 1008 560
WIRE 1168 560 1104 560
WIRE 1248 560 1168 560
WIRE 1312 560 1264 560
WIRE 1392 560 1312 560
WIRE 1472 560 1408 560
WIRE 16 608 -64 608
WIRE 64 608 16 608
WIRE 160 608 80 608
WIRE 208 608 160 608
WIRE 304 608 224 608
WIRE 352 608 304 608
WIRE 464 608 368 608
WIRE 512 608 464 608
WIRE 608 608 528 608
WIRE 656 608 608 608
WIRE 752 608 672 608
WIRE 800 608 752 608
WIRE 896 608 816 608
WIRE 944 608 896 608
WIRE 1040 608 960 608
WIRE 1088 608 1040 608
WIRE 1200 608 1104 608
WIRE 1248 608 1200 608
WIRE 1344 608 1264 608
WIRE 1392 608 1344 608
WIRE 1472 608 1408 608
WIRE 1376 720 1296 720
WIRE -16 768 -160 768
WIRE 128 768 -16 768
WIRE 288 768 128 768
WIRE 432 768 288 768
WIRE 576 768 432 768
WIRE 720 768 576 768
WIRE 864 768 720 768
WIRE 1024 768 864 768
WIRE 1168 768 1024 768
WIRE 1312 768 1168 768
WIRE 1312 784 1312 768
WIRE 224 832 208 832
WIRE 960 832 944 832
WIRE 1296 832 1296 720
WIRE 1296 832 1248 832
WIRE -176 880 -224 880
WIRE -96 880 -176 880
WIRE -32 880 -80 880
WIRE 48 880 -32 880
WIRE 112 880 64 880
WIRE 192 880 112 880
WIRE 272 880 208 880
WIRE 352 880 272 880
WIRE 416 880 368 880
WIRE 496 880 416 880
WIRE 560 880 512 880
WIRE 640 880 560 880
WIRE 704 880 656 880
WIRE 784 880 704 880
WIRE 848 880 800 880
WIRE 928 880 848 880
WIRE 1008 880 944 880
WIRE 1088 880 1008 880
WIRE 1152 880 1104 880
WIRE 1232 880 1152 880
WIRE 1376 880 1376 848
WIRE 1376 880 1248 880
WIRE 1440 880 1376 880
WIRE 1504 880 1456 880
WIRE 1536 880 1504 880
WIRE -144 928 -224 928
WIRE -96 928 -144 928
WIRE 0 928 -80 928
WIRE 48 928 0 928
WIRE 144 928 64 928
WIRE 192 928 144 928
WIRE 304 928 208 928
WIRE 352 928 304 928
WIRE 448 928 368 928
WIRE 496 928 448 928
WIRE 592 928 512 928
WIRE 640 928 592 928
WIRE 736 928 656 928
WIRE 784 928 736 928
WIRE 880 928 800 928
WIRE 928 928 880 928
WIRE 1040 928 944 928
WIRE 1088 928 1040 928
WIRE 1184 928 1104 928
WIRE 1232 928 1184 928
WIRE 1440 928 1248 928
WIRE 1536 928 1456 928
WIRE 1568 928 1536 928
FLAG 1536 880 I
FLAG 1568 928 _I
FLAG -256 160 Vg
FLAG 1488 176 Rail10
FLAG 1488 224 I10
FLAG 1488 272 _I10
FLAG -64 512 Rail10
FLAG -64 560 I10
FLAG -64 608 _I10
FLAG 1472 512 Rail20
FLAG 1472 560 I20
FLAG 1472 608 _I20
FLAG -224 832 Rail20
FLAG -224 880 I20
FLAG -224 928 _I20
FLAG -16 112 Vg
FLAG 0 448 Vg
FLAG -160 768 Vg
SYMBOL cktsym\\nmos3 1376 784 R0
SYMATTR InstName Mend
SYMBOL cktsym\\vdd -144 176 R0
SYMATTR InstName U1
SYMBOL cktsym\\gnd 1536 928 R0
SYMATTR InstName U2
SYMBOL cktsym\\gnd 1504 880 R0
SYMATTR InstName U3
SYMBOL cktsym\\ammeter1 1440 880 R270
WINDOW 0 18 8 VTop 0
WINDOW 123 0 0 Left 0
WINDOW 39 0 0 Left 0
SYMATTR InstName I
SYMBOL cktsym\\ammeter1 1440 928 R270
WINDOW 0 18 8 VTop 0
SYMATTR InstName _I
SYMBOL cktsym\\ammeter1 -96 176 R270
WINDOW 0 18 8 VTop 0
SYMATTR InstName Iin
SYMBOL cktsym\\ammeter1 48 224 R270
WINDOW 0 18 8 VTop 0
SYMATTR InstName I1
SYMBOL cktsym\\ammeter1 48 272 R270
WINDOW 0 18 8 VTop 0
SYMATTR InstName _I1
SYMBOL unitCmos -16 176 R0
SYMATTR InstName X1
SYMBOL unitCmos 128 176 R0
SYMATTR InstName X2
SYMBOL cktsym\\vdd 48 80 R0
SYMATTR InstName U4
SYMBOL cktsym\\vsource -256 224 R0
WINDOW 123 0 0 Left 0
WINDOW 39 0 0 Left 0
SYMATTR Value 5
SYMATTR InstName vg
SYMBOL cktsym\\vsource -256 416 R0
WINDOW 123 0 0 Left 0
WINDOW 39 0 0 Left 0
SYMATTR Value 5
SYMATTR InstName Vdd
SYMBOL cktsym\\vdd -256 352 R0
SYMATTR InstName U7
SYMBOL cktsym\\gnd -256 288 R0
SYMATTR InstName U8
SYMBOL cktsym\\gnd -256 480 R0
SYMATTR InstName U9
SYMBOL cktsym\\ammeter1 48 176 R270
WINDOW 0 18 8 VTop 0
SYMATTR InstName I1R
SYMBOL cktsym\\ammeter1 192 224 R270
WINDOW 0 18 8 VTop 0
SYMATTR InstName I2
SYMBOL cktsym\\ammeter1 192 272 R270
WINDOW 0 18 8 VTop 0
SYMATTR InstName _I2
SYMBOL unitCmos 272 176 R0
SYMATTR InstName X3
SYMBOL cktsym\\vdd 336 80 R0
SYMATTR InstName U5
SYMBOL cktsym\\ammeter1 192 176 R270
WINDOW 0 18 8 VTop 0
SYMATTR InstName I2R
SYMBOL cktsym\\ammeter1 336 224 R270
WINDOW 0 18 8 VTop 0
SYMATTR InstName I3
SYMBOL cktsym\\ammeter1 336 272 R270
WINDOW 0 18 8 VTop 0
SYMATTR InstName _I3
SYMBOL cktsym\\ammeter1 336 176 R270
WINDOW 0 18 8 VTop 0
SYMATTR InstName I3R
SYMBOL cktsym\\ammeter1 496 224 R270
WINDOW 0 18 8 VTop 0
SYMATTR InstName I4
SYMBOL cktsym\\ammeter1 496 272 R270
WINDOW 0 18 8 VTop 0
SYMATTR InstName _I4
SYMBOL unitCmos 576 176 R0
SYMATTR InstName X4
SYMBOL cktsym\\vdd 496 80 R0
SYMATTR InstName U6
SYMBOL cktsym\\ammeter1 496 176 R270
WINDOW 0 18 8 VTop 0
SYMATTR InstName I4R
SYMBOL cktsym\\ammeter1 640 224 R270
WINDOW 0 18 8 VTop 0
SYMATTR InstName I5
SYMBOL cktsym\\ammeter1 640 272 R270
WINDOW 0 18 8 VTop 0
SYMATTR InstName _I5
SYMBOL unitCmos 720 176 R0
SYMATTR InstName X5
SYMBOL cktsym\\vdd 784 80 R0
SYMATTR InstName U11
SYMBOL cktsym\\ammeter1 640 176 R270
WINDOW 0 18 8 VTop 0
SYMATTR InstName I5R
SYMBOL cktsym\\ammeter1 784 224 R270
WINDOW 0 18 8 VTop 0
SYMATTR InstName I6
SYMBOL cktsym\\ammeter1 784 272 R270
WINDOW 0 18 8 VTop 0
SYMATTR InstName _I6
SYMBOL cktsym\\ammeter1 784 176 R270
WINDOW 0 18 8 VTop 0
SYMATTR InstName I6R
SYMBOL unitCmos 432 176 R0
SYMATTR InstName X6
SYMBOL cktsym\\ammeter1 928 224 R270
WINDOW 0 18 8 VTop 0
SYMATTR InstName I7
SYMBOL cktsym\\ammeter1 928 272 R270
WINDOW 0 18 8 VTop 0
SYMATTR InstName ~I7
SYMBOL unitCmos 1008 176 R0
SYMATTR InstName X7
SYMBOL cktsym\\vdd 1072 80 R0
SYMATTR InstName U13
SYMBOL cktsym\\ammeter1 928 176 R270
WINDOW 0 18 8 VTop 0
SYMATTR InstName I7R
SYMBOL cktsym\\ammeter1 1072 224 R270
WINDOW 0 18 8 VTop 0
SYMATTR InstName I8
SYMBOL cktsym\\ammeter1 1072 272 R270
WINDOW 0 18 8 VTop 0
SYMATTR InstName _I8
SYMBOL cktsym\\ammeter1 1072 176 R270
WINDOW 0 18 8 VTop 0
SYMATTR InstName I8R
SYMBOL cktsym\\ammeter1 1232 224 R270
WINDOW 0 18 8 VTop 0
SYMATTR InstName 19
SYMBOL cktsym\\ammeter1 1232 272 R270
WINDOW 0 18 8 VTop 0
SYMATTR InstName _I9
SYMBOL unitCmos 1312 176 R0
SYMATTR InstName X8
SYMBOL cktsym\\vdd 1232 80 R0
SYMATTR InstName U15
SYMBOL cktsym\\ammeter1 1232 176 R270
WINDOW 0 18 8 VTop 0
SYMATTR InstName I9R
SYMBOL cktsym\\ammeter1 1376 224 R270
WINDOW 0 18 8 VTop 0
SYMATTR InstName I10
SYMBOL cktsym\\ammeter1 1376 272 R270
WINDOW 0 18 8 VTop 0
SYMATTR InstName _I10
SYMBOL cktsym\\ammeter1 1376 176 R270
WINDOW 0 18 8 VTop 0
SYMATTR InstName I10R
SYMBOL unitCmos 1168 176 R0
SYMATTR InstName X10
SYMBOL unitCmos 864 176 R0
SYMATTR InstName X11
SYMBOL cktsym\\vdd 192 80 R0
SYMATTR InstName U10
SYMBOL cktsym\\vdd 640 80 R0
SYMATTR InstName U12
SYMBOL cktsym\\vdd 928 80 R0
SYMATTR InstName U14
SYMBOL cktsym\\vdd 1376 80 R0
SYMATTR InstName U27
SYMBOL cktsym\\ammeter1 64 560 R270
WINDOW 0 18 8 VTop 0
SYMATTR InstName I38
SYMBOL cktsym\\ammeter1 64 608 R270
WINDOW 0 18 8 VTop 0
SYMATTR InstName V18
SYMBOL unitCmos 144 512 R0
SYMATTR InstName X21
SYMBOL cktsym\\vdd 64 416 R0
SYMATTR InstName U16
SYMBOL cktsym\\ammeter1 64 512 R270
WINDOW 0 18 8 VTop 0
SYMATTR InstName I39
SYMBOL cktsym\\ammeter1 208 560 R270
WINDOW 0 18 8 VTop 0
SYMATTR InstName I40
SYMBOL cktsym\\ammeter1 208 608 R270
WINDOW 0 18 8 VTop 0
SYMATTR InstName V19
SYMBOL unitCmos 288 512 R0
SYMATTR InstName X22
SYMBOL cktsym\\vdd 352 416 R0
SYMATTR InstName U28
SYMBOL cktsym\\ammeter1 208 512 R270
WINDOW 0 18 8 VTop 0
SYMATTR InstName I41
SYMBOL cktsym\\ammeter1 352 560 R270
WINDOW 0 18 8 VTop 0
SYMATTR InstName I42
SYMBOL cktsym\\ammeter1 352 608 R270
WINDOW 0 18 8 VTop 0
SYMATTR InstName V20
SYMBOL cktsym\\ammeter1 352 512 R270
WINDOW 0 18 8 VTop 0
SYMATTR InstName I43
SYMBOL cktsym\\ammeter1 512 560 R270
WINDOW 0 18 8 VTop 0
SYMATTR InstName I44
SYMBOL cktsym\\ammeter1 512 608 R270
WINDOW 0 18 8 VTop 0
SYMATTR InstName V21
SYMBOL unitCmos 592 512 R0
SYMATTR InstName X23
SYMBOL cktsym\\vdd 512 416 R0
SYMATTR InstName U29
SYMBOL cktsym\\ammeter1 512 512 R270
WINDOW 0 18 8 VTop 0
SYMATTR InstName I45
SYMBOL cktsym\\ammeter1 656 560 R270
WINDOW 0 18 8 VTop 0
SYMATTR InstName I46
SYMBOL cktsym\\ammeter1 656 608 R270
WINDOW 0 18 8 VTop 0
SYMATTR InstName V22
SYMBOL unitCmos 736 512 R0
SYMATTR InstName X24
SYMBOL cktsym\\vdd 800 416 R0
SYMATTR InstName U30
SYMBOL cktsym\\ammeter1 656 512 R270
WINDOW 0 18 8 VTop 0
SYMATTR InstName I47
SYMBOL cktsym\\ammeter1 800 560 R270
WINDOW 0 18 8 VTop 0
SYMATTR InstName I48
SYMBOL cktsym\\ammeter1 800 608 R270
WINDOW 0 18 8 VTop 0
SYMATTR InstName V23
SYMBOL cktsym\\ammeter1 800 512 R270
WINDOW 0 18 8 VTop 0
SYMATTR InstName I49
SYMBOL unitCmos 448 512 R0
SYMATTR InstName X25
SYMBOL cktsym\\ammeter1 944 560 R270
WINDOW 0 18 8 VTop 0
SYMATTR InstName I50
SYMBOL cktsym\\ammeter1 944 608 R270
WINDOW 0 18 8 VTop 0
SYMATTR InstName V24
SYMBOL unitCmos 1024 512 R0
SYMATTR InstName X26
SYMBOL cktsym\\vdd 1088 416 R0
SYMATTR InstName U31
SYMBOL cktsym\\ammeter1 944 512 R270
WINDOW 0 18 8 VTop 0
SYMATTR InstName I51
SYMBOL cktsym\\ammeter1 1088 560 R270
WINDOW 0 18 8 VTop 0
SYMATTR InstName I52
SYMBOL cktsym\\ammeter1 1088 608 R270
WINDOW 0 18 8 VTop 0
SYMATTR InstName V25
SYMBOL cktsym\\ammeter1 1088 512 R270
WINDOW 0 18 8 VTop 0
SYMATTR InstName I53
SYMBOL cktsym\\ammeter1 1248 560 R270
WINDOW 0 18 8 VTop 0
SYMATTR InstName I54
SYMBOL cktsym\\ammeter1 1248 608 R270
WINDOW 0 18 8 VTop 0
SYMATTR InstName V26
SYMBOL unitCmos 1328 512 R0
SYMATTR InstName X27
SYMBOL cktsym\\vdd 1248 416 R0
SYMATTR InstName U32
SYMBOL cktsym\\ammeter1 1248 512 R270
WINDOW 0 18 8 VTop 0
SYMATTR InstName I55
SYMBOL cktsym\\ammeter1 1392 560 R270
WINDOW 0 18 8 VTop 0
SYMATTR InstName I56
SYMBOL cktsym\\ammeter1 1392 608 R270
WINDOW 0 18 8 VTop 0
SYMATTR InstName V27
SYMBOL cktsym\\ammeter1 1392 512 R270
WINDOW 0 18 8 VTop 0
SYMATTR InstName I57
SYMBOL unitCmos 1184 512 R0
SYMATTR InstName X28
SYMBOL unitCmos 880 512 R0
SYMATTR InstName X29
SYMBOL cktsym\\vdd 208 416 R0
SYMATTR InstName U33
SYMBOL cktsym\\vdd 656 416 R0
SYMATTR InstName U34
SYMBOL cktsym\\vdd 944 416 R0
SYMATTR InstName U35
SYMBOL unitCmos 0 512 R0
SYMATTR InstName X30
SYMBOL cktsym\\vdd 1392 416 R0
SYMATTR InstName U37
SYMBOL cktsym\\ammeter1 -96 880 R270
WINDOW 0 18 8 VTop 0
SYMATTR InstName I58
SYMBOL cktsym\\ammeter1 -96 928 R270
WINDOW 0 18 8 VTop 0
SYMATTR InstName V28
SYMBOL unitCmos -16 832 R0
SYMATTR InstName X31
SYMBOL cktsym\\vdd -96 736 R0
SYMATTR InstName U36
SYMBOL cktsym\\ammeter1 -96 832 R270
WINDOW 0 18 8 VTop 0
SYMATTR InstName I59
SYMBOL cktsym\\ammeter1 48 880 R270
WINDOW 0 18 8 VTop 0
SYMATTR InstName I60
SYMBOL cktsym\\ammeter1 48 928 R270
WINDOW 0 18 8 VTop 0
SYMATTR InstName V29
SYMBOL unitCmos 128 832 R0
SYMATTR InstName X32
SYMBOL cktsym\\vdd 192 736 R0
SYMATTR InstName U38
SYMBOL cktsym\\ammeter1 48 832 R270
WINDOW 0 18 8 VTop 0
SYMATTR InstName I61
SYMBOL cktsym\\ammeter1 192 880 R270
WINDOW 0 18 8 VTop 0
SYMATTR InstName I62
SYMBOL cktsym\\ammeter1 192 928 R270
WINDOW 0 18 8 VTop 0
SYMATTR InstName V30
SYMBOL cktsym\\ammeter1 192 832 R270
WINDOW 0 18 8 VTop 0
SYMATTR InstName I63
SYMBOL cktsym\\ammeter1 352 880 R270
WINDOW 0 18 8 VTop 0
SYMATTR InstName I64
SYMBOL cktsym\\ammeter1 352 928 R270
WINDOW 0 18 8 VTop 0
SYMATTR InstName V31
SYMBOL unitCmos 432 832 R0
SYMATTR InstName X33
SYMBOL cktsym\\vdd 352 736 R0
SYMATTR InstName U39
SYMBOL cktsym\\ammeter1 352 832 R270
WINDOW 0 18 8 VTop 0
SYMATTR InstName I65
SYMBOL cktsym\\ammeter1 496 880 R270
WINDOW 0 18 8 VTop 0
SYMATTR InstName I66
SYMBOL cktsym\\ammeter1 496 928 R270
WINDOW 0 18 8 VTop 0
SYMATTR InstName V32
SYMBOL unitCmos 576 832 R0
SYMATTR InstName X34
SYMBOL cktsym\\vdd 640 736 R0
SYMATTR InstName U40
SYMBOL cktsym\\ammeter1 496 832 R270
WINDOW 0 18 8 VTop 0
SYMATTR InstName I67
SYMBOL cktsym\\ammeter1 640 880 R270
WINDOW 0 18 8 VTop 0
SYMATTR InstName I68
SYMBOL cktsym\\ammeter1 640 928 R270
WINDOW 0 18 8 VTop 0
SYMATTR InstName V33
SYMBOL cktsym\\ammeter1 640 832 R270
WINDOW 0 18 8 VTop 0
SYMATTR InstName I69
SYMBOL unitCmos 288 832 R0
SYMATTR InstName X35
SYMBOL cktsym\\ammeter1 784 880 R270
WINDOW 0 18 8 VTop 0
SYMATTR InstName I70
SYMBOL cktsym\\ammeter1 784 928 R270
WINDOW 0 18 8 VTop 0
SYMATTR InstName V34
SYMBOL unitCmos 864 832 R0
SYMATTR InstName X36
SYMBOL cktsym\\vdd 928 736 R0
SYMATTR InstName U41
SYMBOL cktsym\\ammeter1 784 832 R270
WINDOW 0 18 8 VTop 0
SYMATTR InstName I71
SYMBOL cktsym\\ammeter1 928 880 R270
WINDOW 0 18 8 VTop 0
SYMATTR InstName I72
SYMBOL cktsym\\ammeter1 928 928 R270
WINDOW 0 18 8 VTop 0
SYMATTR InstName V35
SYMBOL cktsym\\ammeter1 928 832 R270
WINDOW 0 18 8 VTop 0
SYMATTR InstName I73
SYMBOL cktsym\\ammeter1 1088 880 R270
WINDOW 0 18 8 VTop 0
SYMATTR InstName I74
SYMBOL cktsym\\ammeter1 1088 928 R270
WINDOW 0 18 8 VTop 0
SYMATTR InstName V36
SYMBOL unitCmos 1168 832 R0
SYMATTR InstName X37
SYMBOL cktsym\\vdd 1088 736 R0
SYMATTR InstName U42
SYMBOL cktsym\\ammeter1 1088 832 R270
WINDOW 0 18 8 VTop 0
SYMATTR InstName I75
SYMBOL cktsym\\ammeter1 1232 880 R270
WINDOW 0 18 8 VTop 0
SYMATTR InstName I76
SYMBOL cktsym\\ammeter1 1232 928 R270
WINDOW 0 18 8 VTop 0
SYMATTR InstName V37
SYMBOL cktsym\\ammeter1 1232 832 R270
WINDOW 0 18 8 VTop 0
SYMATTR InstName I77
SYMBOL unitCmos 1024 832 R0
SYMATTR InstName X38
SYMBOL unitCmos 720 832 R0
SYMATTR InstName X39
SYMBOL cktsym\\vdd 48 736 R0
SYMATTR InstName U43
SYMBOL cktsym\\vdd 496 736 R0
SYMATTR InstName U44
SYMBOL cktsym\\vdd 784 736 R0
SYMATTR InstName U45
SYMBOL unitCmos -160 832 R0
SYMATTR InstName X40
SYMBOL cktsym\\gnd 1232 736 R0
SYMATTR InstName U47
TEXT -328 640 Left 2 !.tran 0 10n 0 .01n
TEXT -328 672 Left 2 !.include engr2420.sub
