Version 4
SHEET 1 2000 1308
WIRE 448 64 368 64
WIRE 128 112 -16 112
WIRE 272 112 128 112
WIRE 384 112 272 112
WIRE 384 128 384 112
WIRE -96 176 -144 176
WIRE -64 176 -80 176
WIRE 368 176 368 64
WIRE 368 176 352 176
WIRE 48 224 -32 224
WIRE 112 224 64 224
WIRE 192 224 112 224
WIRE 256 224 208 224
WIRE 336 224 256 224
WIRE 448 224 448 192
WIRE 448 224 352 224
WIRE 512 224 448 224
WIRE 576 224 528 224
WIRE 608 224 576 224
WIRE 48 272 0 272
WIRE 144 272 64 272
WIRE 192 272 144 272
WIRE 288 272 208 272
WIRE 336 272 288 272
WIRE 512 272 352 272
WIRE 608 272 528 272
WIRE 640 272 608 272
FLAG 608 224 I
FLAG 640 272 _I
FLAG -240 112 Vg
FLAG -16 112 Vg
SYMBOL cktsym\\nmos3 448 128 R0
SYMATTR InstName Mend
SYMBOL cktsym\\vdd -144 176 R0
SYMATTR InstName U1
SYMBOL cktsym\\gnd 608 272 R0
SYMATTR InstName U2
SYMBOL cktsym\\gnd 576 224 R0
SYMATTR InstName U3
SYMBOL cktsym\\ammeter1 512 224 R270
WINDOW 0 18 8 VTop 0
WINDOW 123 0 0 Left 0
WINDOW 39 0 0 Left 0
SYMATTR InstName I
SYMBOL cktsym\\ammeter1 512 272 R270
WINDOW 0 18 8 VTop 0
SYMATTR InstName _I
SYMBOL cktsym\\ammeter1 -96 176 R270
WINDOW 0 18 8 VTop 0
SYMATTR InstName Iin
SYMBOL cktsym\\ammeter1 48 224 R270
WINDOW 0 18 8 VTop 0
SYMATTR InstName I1
SYMBOL cktsym\\ammeter1 48 272 R270
WINDOW 0 18 8 VTop 0
SYMATTR InstName _I1
SYMBOL unitCmos -16 176 R0
SYMATTR InstName X1
SYMBOL unitCmos 128 176 R0
SYMATTR InstName X2
SYMBOL cktsym\\vdd 48 80 R0
SYMATTR InstName U4
SYMBOL cktsym\\vsource -240 176 R0
WINDOW 123 0 0 Left 0
WINDOW 39 0 0 Left 0
SYMATTR Value 5
SYMATTR InstName Vg
SYMBOL cktsym\\vsource -240 368 R0
WINDOW 123 0 0 Left 0
WINDOW 39 0 0 Left 0
SYMATTR Value 5
SYMATTR InstName Vdd
SYMBOL cktsym\\vdd -240 304 R0
SYMATTR InstName U7
SYMBOL cktsym\\gnd -240 240 R0
SYMATTR InstName U8
SYMBOL cktsym\\gnd -240 432 R0
SYMATTR InstName U9
SYMBOL cktsym\\ammeter1 48 176 R270
WINDOW 0 18 8 VTop 0
SYMATTR InstName I1R
SYMBOL cktsym\\ammeter1 192 224 R270
WINDOW 0 18 8 VTop 0
SYMATTR InstName I2
SYMBOL cktsym\\ammeter1 192 272 R270
WINDOW 0 18 8 VTop 0
SYMATTR InstName _I2
SYMBOL unitCmos 272 176 R0
SYMATTR InstName X3
SYMBOL cktsym\\vdd 336 80 R0
SYMATTR InstName U5
SYMBOL cktsym\\ammeter1 192 176 R270
WINDOW 0 18 8 VTop 0
SYMATTR InstName I2R
SYMBOL cktsym\\ammeter1 336 224 R270
WINDOW 0 18 8 VTop 0
SYMATTR InstName I3
SYMBOL cktsym\\ammeter1 336 272 R270
WINDOW 0 18 8 VTop 0
SYMATTR InstName _I3
SYMBOL cktsym\\ammeter1 336 176 R270
WINDOW 0 18 8 VTop 0
SYMATTR InstName I3R
SYMBOL cktsym\\gnd 192 80 R0
SYMATTR InstName U6
TEXT -120 344 Left 2 !.dc Vg 0 5 .01
TEXT -120 376 Left 2 !.include engr2420.sub
