Version 4
SHEET 1 880 680
WIRE 416 -400 -64 -400
WIRE -432 -336 -688 -336
WIRE -304 -336 -432 -336
WIRE -144 -336 -304 -336
WIRE 352 -336 -144 -336
WIRE -64 -288 -64 -400
WIRE -432 -256 -432 -336
WIRE -224 -256 -432 -256
WIRE -64 -256 -208 -256
WIRE 416 -256 416 -272
WIRE 416 -256 -48 -256
WIRE 480 -256 416 -256
WIRE -432 -224 -432 -256
WIRE -224 -224 -432 -224
WIRE -64 -224 -208 -224
WIRE 480 -224 -48 -224
WIRE -304 -176 -384 -176
WIRE -144 -176 -304 -176
WIRE -464 16 -592 16
WIRE -400 16 -464 16
WIRE -272 16 -400 16
WIRE -208 16 -272 16
WIRE -80 16 -208 16
WIRE -16 16 -80 16
WIRE 112 16 -16 16
WIRE 176 16 112 16
WIRE 304 16 176 16
WIRE 368 16 304 16
WIRE 480 16 384 16
WIRE -688 32 -688 -336
WIRE -688 32 -704 32
WIRE -592 32 -592 16
WIRE -592 32 -688 32
WIRE -528 80 -560 80
WIRE -336 80 -400 80
WIRE -144 80 -208 80
WIRE 48 80 -16 80
WIRE 240 80 176 80
WIRE 432 80 368 80
WIRE 544 80 432 80
WIRE -560 96 -560 80
FLAG -560 96 0
FLAG -704 160 0
FLAG -800 96 0
FLAG 480 -256 I
FLAG 480 -224 ~I
SYMBOL cktsym\\nmos3 240 16 R0
SYMATTR InstName U5.1
SYMBOL cktsym\\nmos3 112 80 R90
WINDOW 0 27 -26 VRight 0
SYMATTR InstName U4.2
SYMATTR SpiceLine M=2
SYMBOL cktsym\\nmos3 48 16 R0
SYMATTR InstName U4.1
SYMBOL cktsym\\nmos3 -80 80 R90
WINDOW 0 27 -26 VRight 0
SYMATTR InstName U3.2
SYMATTR SpiceLine M=2
SYMBOL cktsym\\nmos3 -144 16 R0
SYMATTR InstName U3.1
SYMBOL cktsym\\nmos3 -272 80 R90
WINDOW 0 27 -26 VRight 0
SYMATTR InstName U2.2
SYMATTR SpiceLine M=2
SYMBOL cktsym\\nmos3 -336 16 R0
SYMATTR InstName U2.1
SYMBOL cktsym\\nmos3 -464 80 R90
WINDOW 0 27 -26 VRight 0
SYMATTR InstName U1.2
SYMATTR SpiceLine M=2
SYMBOL cktsym\\nmos3 -528 16 R0
SYMATTR InstName U1.1
SYMBOL cktsym\\vsource -704 96 R0
WINDOW 123 0 0 Left 0
WINDOW 39 0 0 Left 0
SYMATTR Value 5
SYMATTR InstName VGate
SYMBOL cktsym\\ammeter1 240 -64 R0
SYMATTR InstName I5
SYMBOL cktsym\\ammeter1 48 -64 R0
SYMATTR InstName I4
SYMBOL cktsym\\ammeter1 -144 -64 R0
SYMATTR InstName I3
SYMBOL cktsym\\ammeter1 -336 -64 R0
SYMATTR InstName I2
SYMBOL cktsym\\ammeter1 -528 -64 R0
SYMATTR InstName I1
SYMBOL cktsym\\vdd -528 -64 R0
SYMATTR InstName U12
SYMBOL cktsym\\vdd -336 -64 R0
SYMATTR InstName U13
SYMBOL cktsym\\vdd -144 -64 R0
SYMATTR InstName U14
SYMBOL cktsym\\vdd 48 -64 R0
SYMATTR InstName U15
SYMBOL cktsym\\vdd 240 -64 R0
SYMATTR InstName U16
SYMBOL cktsym\\vsource -800 32 R0
WINDOW 123 0 0 Left 0
WINDOW 39 0 0 Left 0
SYMATTR Value 5
SYMATTR InstName Vdd
SYMBOL cktsym\\vdd -800 -32 R0
SYMATTR InstName U17
SYMBOL cktsym\\nmos3 544 16 R0
SYMATTR InstName Un
SYMBOL cktsym\\vdd 544 -48 R0
SYMATTR InstName U2
SYMBOL cktsym\\nmos3 432 16 R0
SYMATTR InstName U6.1
SYMBOL cktsym\\ammeter1 432 -64 R0
WINDOW 123 0 0 Left 0
WINDOW 39 0 0 Left 0
SYMATTR InstName I6
SYMBOL cktsym\\vdd 432 -64 R0
SYMATTR InstName U4
SYMBOL cktsym\\nmos3 304 80 R90
WINDOW 0 27 -26 VRight 0
SYMATTR InstName U5.2
SYMATTR SpiceLine M=2
SYMBOL unit -304 -256 R0
SYMATTR InstName X3
SYMBOL cktsym\\nmos3 416 -336 R0
SYMATTR InstName Un2
SYMBOL cktsym\\vdd -384 -176 R0
SYMATTR InstName U1
SYMBOL cktsym\\vdd -384 -288 R0
SYMATTR InstName U3
SYMBOL cktsym\\ammeter3 -224 -256 R270
WINDOW 0 18 8 VTop 2
SYMATTR InstName V1
SYMBOL cktsym\\ammeter3 -224 -224 R270
WINDOW 0 18 8 VTop 2
SYMATTR InstName V2
SYMBOL unit -512 -496 R0
SYMATTR InstName X2
SYMBOL cktsym\\ammeter3 -432 -496 R270
WINDOW 0 18 8 VTop 2
SYMATTR InstName V5
SYMBOL cktsym\\ammeter3 -432 -464 R270
WINDOW 0 18 8 VTop 2
SYMATTR InstName V6
SYMBOL unit -144 -256 R0
SYMATTR InstName X4
SYMBOL cktsym\\ammeter3 -64 -256 R270
WINDOW 0 18 8 VTop 2
SYMATTR InstName V7
SYMBOL cktsym\\ammeter3 -64 -224 R270
WINDOW 0 18 8 VTop 2
SYMATTR InstName V8
TEXT 96 232 Left 2 !.include engr2420.sub
TEXT -736 256 Left 2 !.dc VGate 0 5 0.1
