Version 4
SHEET 1 880 680
WIRE 464 48 384 48
WIRE -208 96 -224 96
WIRE -176 96 -208 96
WIRE -32 96 -176 96
WIRE 112 96 -32 96
WIRE 400 96 112 96
WIRE 400 112 400 96
WIRE -272 160 -320 160
WIRE -240 160 -256 160
WIRE 384 160 384 48
WIRE 384 160 192 160
WIRE -112 208 -192 208
WIRE -48 208 -96 208
WIRE 32 208 -48 208
WIRE 96 208 48 208
WIRE 176 208 96 208
WIRE 464 208 464 176
WIRE 464 208 192 208
WIRE 528 208 464 208
WIRE 592 208 544 208
WIRE 624 208 592 208
WIRE -112 256 -160 256
WIRE -16 256 -96 256
WIRE 32 256 -16 256
WIRE 128 256 48 256
WIRE 176 256 128 256
WIRE 528 256 192 256
WIRE 624 256 544 256
WIRE 656 256 624 256
FLAG 624 208 I
FLAG 656 256 ~I
FLAG -416 -144 vg
FLAG -208 96 vg
SYMBOL cktsym\\nmos3 464 112 R0
SYMATTR InstName Mend
SYMBOL cktsym\\vdd -320 160 R0
SYMATTR InstName U1
SYMBOL cktsym\\gnd 624 256 R0
SYMATTR InstName U2
SYMBOL cktsym\\gnd 592 208 R0
SYMATTR InstName U3
SYMBOL cktsym\\ammeter1 528 208 R270
WINDOW 0 18 8 VTop 0
WINDOW 123 0 0 Left 0
WINDOW 39 0 0 Left 0
SYMATTR InstName I
SYMBOL cktsym\\ammeter1 528 256 R270
WINDOW 0 18 8 VTop 0
SYMATTR InstName ~I
SYMBOL cktsym\\ammeter1 -272 160 R270
WINDOW 0 18 8 VTop 0
SYMATTR InstName Iin
SYMBOL cktsym\\ammeter1 -112 208 R270
WINDOW 0 18 8 VTop 0
SYMATTR InstName I1
SYMBOL cktsym\\ammeter1 -112 256 R270
WINDOW 0 18 8 VTop 0
SYMATTR InstName ~I1
SYMBOL unitCmos -176 160 R0
SYMATTR InstName X1
SYMBOL unitCmos -32 160 R0
SYMATTR InstName X2
SYMBOL cktsym\\vdd -112 64 R0
SYMATTR InstName U4
SYMBOL cktsym\\vsource -416 -80 R0
WINDOW 123 0 0 Left 0
WINDOW 39 0 0 Left 0
SYMATTR Value 5
SYMATTR InstName vg
SYMBOL cktsym\\vsource -416 112 R0
WINDOW 123 0 0 Left 0
WINDOW 39 0 0 Left 0
SYMATTR Value 5
SYMATTR InstName Vdd
SYMBOL cktsym\\vdd -416 48 R0
SYMATTR InstName U7
SYMBOL cktsym\\gnd -416 -16 R0
SYMATTR InstName U8
SYMBOL cktsym\\gnd -416 176 R0
SYMATTR InstName U9
SYMBOL cktsym\\ammeter1 -112 160 R270
WINDOW 0 18 8 VTop 0
SYMATTR InstName I1R
SYMBOL cktsym\\ammeter1 32 208 R270
WINDOW 0 18 8 VTop 0
SYMATTR InstName I2
SYMBOL cktsym\\ammeter1 32 256 R270
WINDOW 0 18 8 VTop 0
SYMATTR InstName ~I2
SYMBOL unitCmos 112 160 R0
SYMATTR InstName X3
SYMBOL cktsym\\vdd 176 64 R0
SYMATTR InstName U5
SYMBOL cktsym\\ammeter1 32 160 R270
WINDOW 0 18 8 VTop 0
SYMATTR InstName I2R
SYMBOL cktsym\\gnd 32 64 R0
SYMATTR InstName U10
SYMBOL cktsym\\ammeter1 176 208 R270
WINDOW 0 18 8 VTop 0
SYMATTR InstName I3
SYMBOL cktsym\\ammeter1 176 256 R270
WINDOW 0 18 8 VTop 0
SYMATTR InstName ~I3
SYMBOL cktsym\\ammeter1 176 160 R270
WINDOW 0 18 8 VTop 0
SYMATTR InstName I3R
TEXT -488 272 Left 2 !.dc vg 0 5 .1
TEXT -488 304 Left 2 !.include engr2420.sub
