Version 4
SHEET 1 2000 680
WIRE 1760 48 1680 48
WIRE -208 96 -224 96
WIRE -176 96 -208 96
WIRE -32 96 -176 96
WIRE 112 96 -32 96
WIRE 272 96 112 96
WIRE 416 96 272 96
WIRE 560 96 416 96
WIRE 704 96 560 96
WIRE 848 96 704 96
WIRE 1008 96 848 96
WIRE 1152 96 1008 96
WIRE 1696 96 1152 96
WIRE 1696 112 1696 96
WIRE -272 160 -320 160
WIRE -240 160 -256 160
WIRE 208 160 192 160
WIRE 944 160 928 160
WIRE 1680 160 1680 48
WIRE 1680 160 1232 160
WIRE -112 208 -192 208
WIRE -48 208 -96 208
WIRE 32 208 -48 208
WIRE 96 208 48 208
WIRE 176 208 96 208
WIRE 256 208 192 208
WIRE 336 208 256 208
WIRE 400 208 352 208
WIRE 480 208 400 208
WIRE 544 208 496 208
WIRE 624 208 544 208
WIRE 688 208 640 208
WIRE 768 208 688 208
WIRE 832 208 784 208
WIRE 912 208 832 208
WIRE 992 208 928 208
WIRE 1072 208 992 208
WIRE 1136 208 1088 208
WIRE 1216 208 1136 208
WIRE 1760 208 1760 176
WIRE 1760 208 1232 208
WIRE 1824 208 1760 208
WIRE 1888 208 1840 208
WIRE 1920 208 1888 208
WIRE -112 256 -160 256
WIRE -16 256 -96 256
WIRE 32 256 -16 256
WIRE 128 256 48 256
WIRE 176 256 128 256
WIRE 288 256 192 256
WIRE 336 256 288 256
WIRE 432 256 352 256
WIRE 480 256 432 256
WIRE 576 256 496 256
WIRE 624 256 576 256
WIRE 720 256 640 256
WIRE 768 256 720 256
WIRE 864 256 784 256
WIRE 912 256 864 256
WIRE 1024 256 928 256
WIRE 1072 256 1024 256
WIRE 1168 256 1088 256
WIRE 1216 256 1168 256
WIRE 1824 256 1232 256
WIRE 1920 256 1840 256
WIRE 1952 256 1920 256
FLAG 1920 208 I
FLAG 1952 256 ~I
FLAG -416 -144 vg
FLAG -208 96 vg
SYMBOL cktsym\\nmos3 1760 112 R0
SYMATTR InstName Mend
SYMBOL cktsym\\vdd -320 160 R0
SYMATTR InstName U1
SYMBOL cktsym\\gnd 1920 256 R0
SYMATTR InstName U2
SYMBOL cktsym\\gnd 1888 208 R0
SYMATTR InstName U3
SYMBOL cktsym\\ammeter1 1824 208 R270
WINDOW 0 18 8 VTop 0
WINDOW 123 0 0 Left 0
WINDOW 39 0 0 Left 0
SYMATTR InstName I
SYMBOL cktsym\\ammeter1 1824 256 R270
WINDOW 0 18 8 VTop 0
SYMATTR InstName ~I
SYMBOL cktsym\\ammeter1 -272 160 R270
WINDOW 0 18 8 VTop 0
SYMATTR InstName Iin
SYMBOL cktsym\\ammeter1 -112 208 R270
WINDOW 0 18 8 VTop 0
SYMATTR InstName I1
SYMBOL cktsym\\ammeter1 -112 256 R270
WINDOW 0 18 8 VTop 0
SYMATTR InstName ~I1
SYMBOL unitCmos -176 160 R0
SYMATTR InstName X1
SYMBOL unitCmos -32 160 R0
SYMATTR InstName X2
SYMBOL cktsym\\vdd -112 64 R0
SYMATTR InstName U4
SYMBOL cktsym\\vsource -416 -80 R0
WINDOW 123 0 0 Left 0
WINDOW 39 0 0 Left 0
SYMATTR Value 5
SYMATTR InstName vg
SYMBOL cktsym\\vsource -416 112 R0
WINDOW 123 0 0 Left 0
WINDOW 39 0 0 Left 0
SYMATTR Value 5
SYMATTR InstName Vdd
SYMBOL cktsym\\vdd -416 48 R0
SYMATTR InstName U7
SYMBOL cktsym\\gnd -416 -16 R0
SYMATTR InstName U8
SYMBOL cktsym\\gnd -416 176 R0
SYMATTR InstName U9
SYMBOL cktsym\\ammeter1 -112 160 R270
WINDOW 0 18 8 VTop 0
SYMATTR InstName I1R
SYMBOL cktsym\\ammeter1 32 208 R270
WINDOW 0 18 8 VTop 0
SYMATTR InstName I2
SYMBOL cktsym\\ammeter1 32 256 R270
WINDOW 0 18 8 VTop 0
SYMATTR InstName ~I2
SYMBOL unitCmos 112 160 R0
SYMATTR InstName X3
SYMBOL cktsym\\vdd 176 64 R0
SYMATTR InstName U5
SYMBOL cktsym\\ammeter1 32 160 R270
WINDOW 0 18 8 VTop 0
SYMATTR InstName I2R
SYMBOL cktsym\\ammeter1 176 208 R270
WINDOW 0 18 8 VTop 0
SYMATTR InstName I3
SYMBOL cktsym\\ammeter1 176 256 R270
WINDOW 0 18 8 VTop 0
SYMATTR InstName ~I3
SYMBOL cktsym\\ammeter1 176 160 R270
WINDOW 0 18 8 VTop 0
SYMATTR InstName I3R
SYMBOL cktsym\\ammeter1 336 208 R270
WINDOW 0 18 8 VTop 0
SYMATTR InstName I4
SYMBOL cktsym\\ammeter1 336 256 R270
WINDOW 0 18 8 VTop 0
SYMATTR InstName V1
SYMBOL unitCmos 416 160 R0
SYMATTR InstName X4
SYMBOL cktsym\\vdd 336 64 R0
SYMATTR InstName U6
SYMBOL cktsym\\ammeter1 336 160 R270
WINDOW 0 18 8 VTop 0
SYMATTR InstName I5
SYMBOL cktsym\\ammeter1 480 208 R270
WINDOW 0 18 8 VTop 0
SYMATTR InstName I6
SYMBOL cktsym\\ammeter1 480 256 R270
WINDOW 0 18 8 VTop 0
SYMATTR InstName V2
SYMBOL unitCmos 560 160 R0
SYMATTR InstName X5
SYMBOL cktsym\\vdd 624 64 R0
SYMATTR InstName U11
SYMBOL cktsym\\ammeter1 480 160 R270
WINDOW 0 18 8 VTop 0
SYMATTR InstName I7
SYMBOL cktsym\\ammeter1 624 208 R270
WINDOW 0 18 8 VTop 0
SYMATTR InstName I8
SYMBOL cktsym\\ammeter1 624 256 R270
WINDOW 0 18 8 VTop 0
SYMATTR InstName V3
SYMBOL cktsym\\ammeter1 624 160 R270
WINDOW 0 18 8 VTop 0
SYMATTR InstName I9
SYMBOL unitCmos 272 160 R0
SYMATTR InstName X6
SYMBOL cktsym\\ammeter1 768 208 R270
WINDOW 0 18 8 VTop 0
SYMATTR InstName I10
SYMBOL cktsym\\ammeter1 768 256 R270
WINDOW 0 18 8 VTop 0
SYMATTR InstName V4
SYMBOL unitCmos 848 160 R0
SYMATTR InstName X7
SYMBOL cktsym\\vdd 912 64 R0
SYMATTR InstName U13
SYMBOL cktsym\\ammeter1 768 160 R270
WINDOW 0 18 8 VTop 0
SYMATTR InstName I11
SYMBOL cktsym\\ammeter1 912 208 R270
WINDOW 0 18 8 VTop 0
SYMATTR InstName I12
SYMBOL cktsym\\ammeter1 912 256 R270
WINDOW 0 18 8 VTop 0
SYMATTR InstName V5
SYMBOL cktsym\\ammeter1 912 160 R270
WINDOW 0 18 8 VTop 0
SYMATTR InstName I13
SYMBOL cktsym\\ammeter1 1072 208 R270
WINDOW 0 18 8 VTop 0
SYMATTR InstName I14
SYMBOL cktsym\\ammeter1 1072 256 R270
WINDOW 0 18 8 VTop 0
SYMATTR InstName V6
SYMBOL unitCmos 1152 160 R0
SYMATTR InstName X8
SYMBOL cktsym\\vdd 1072 64 R0
SYMATTR InstName U15
SYMBOL cktsym\\ammeter1 1072 160 R270
WINDOW 0 18 8 VTop 0
SYMATTR InstName I15
SYMBOL cktsym\\ammeter1 1216 208 R270
WINDOW 0 18 8 VTop 0
SYMATTR InstName I16
SYMBOL cktsym\\ammeter1 1216 256 R270
WINDOW 0 18 8 VTop 0
SYMATTR InstName V7
SYMBOL cktsym\\ammeter1 1216 160 R270
WINDOW 0 18 8 VTop 0
SYMATTR InstName I17
SYMBOL unitCmos 1008 160 R0
SYMATTR InstName X10
SYMBOL unitCmos 704 160 R0
SYMATTR InstName X11
SYMBOL cktsym\\vdd 32 64 R0
SYMATTR InstName U10
SYMBOL cktsym\\vdd 480 64 R0
SYMATTR InstName U12
SYMBOL cktsym\\vdd 768 64 R0
SYMATTR InstName U14
SYMBOL cktsym\\gnd 1216 64 R0
SYMATTR InstName U16
TEXT -488 272 Left 2 !.dc vg 0 5 .01
TEXT -488 304 Left 2 !.include engr2420.sub
