* C:\users\manu\Desktop\Classes\S2020\circuits-lab\Final\ltspice\final.asc
XU5.1 P001 N004 N017 nmos3
XU4.2 N017 N004 N016 nmos3 M=2
XU4.1 P002 N004 N016 nmos3
XU3.2 N016 N004 N015 nmos3 M=2
XU3.1 P003 N004 N015 nmos3
XU2.2 N015 N004 N014 nmos3 M=2
XU2.1 P004 N004 N014 nmos3
XU1.2 N014 N004 0 nmos3 M=2
XU1.1 P005 N004 0 nmos3
VGate N004 0 5
V§I5 N012 P001 0
V§I4 P006 P002 0
V§I3 P007 P003 0
V§I2 P008 P004 0
V§I1 P009 P005 0
XU12 P009 vdd
XU13 P008 vdd
XU14 P007 vdd
XU15 P006 vdd
XU16 N012 vdd
Vdd P010 0 5
XU17 P010 vdd
XUn P011 N013 N018 nmos3
XU2 P011 vdd
XU6.1 P012 N004 N018 nmos3
V§I6 P013 P012 0
XU4 P013 vdd
XU5.2 N018 N004 N017 nmos3 M=2
XX3 N004 N011 P014 N005 N004 N004 unit
XUn2 N003 N004 I nmos3
XX1 N004 N011 N005 N006 N007 N009 unit
XU1 N011 vdd
XU3 P014 vdd
V1 N004 N007 0
V2 N004 N009 0
V3 N007 N008 0
V4 N009 N010 0
XX2 NC_01 NC_02 NC_03 NC_04 N001 N002 unit
V7 N001 NC_05 0
V8 N002 NC_06 0
XX4 N004 N011 N006 N003 N008 N010 unit
V5 N008 I 0
V6 N010 ~I 0

* block symbol definitions
.subckt unit VG Signal RailIn RailOut Iout ~Iout
XU3 RailIn VG RailOut nmos3
XU4 RailIn VG N001 nmos3
XU5 N001 N002 Iout nmos3
XU6 N001 N004 ~Iout nmos3
XX1 VG N002 Signal switch
XX2 VG N004 N003 switch
A2 Signal 0 0 0 0 N003 0 0 BUF
.include engr2420.sub
.ends unit

.subckt switch In Out Signal
S1 Out In Signal 0 MYSW
.model MYSW SW(Ron=1 Roff=1Meg Vt=.5 Vh=-.4)
.ends switch

.include engr2420.sub
.dc VGate 0 5 0.1
.backanno
.end
