* C:\users\manu\Desktop\Classes\S2020\circuits-lab\Final\ltspice\final.asc
XU5.1 P001 vg N016 nmos3
XU4.2 N016 vg N015 nmos3 M=2
XU4.1 P002 vg N015 nmos3
XU3.2 N015 vg N014 nmos3 M=2
XU3.1 P003 vg N014 nmos3
XU2.2 N014 vg N013 nmos3 M=2
XU2.1 P004 vg N013 nmos3
XU1.2 N013 vg N012 nmos3 M=2
XU1.1 P005 vg N012 nmos3
vg vg P006 5
V§I5 P007 P001 0
V§I4 P008 P002 0
V§I3 P009 P003 0
V§I2 P010 P004 0
V§I0 P011 P005 0
XU12 P011 vdd
XU13 P010 vdd
XU14 P009 vdd
XU15 P008 vdd
XU16 P007 vdd
Vdd P012 P013 5
XU17 P012 vdd
XUn P014 N011 N017 nmos3
XU2 P014 vdd
XU6.1 P015 vg N017 nmos3
V§I6 P016 P015 0
XU4 P016 vdd
XU5.2 N017 vg N016 nmos3 M=2
XX3 vg N010 N004 N005 N006 N008 unit
XUn2 N002 vg N007 nmos3
XU1 N010 vdd
XU3 N003 vdd
XU5 P006 gnd
XU6 P013 gnd
XU7 ~I gnd
XU8 I gnd
XU9 N012 gnd
XX1 vg P017 N005 N002 N007 N009 unit
V§I N007 I 0
V§I~ N009 ~I 0
V§I9 N003 N004 0
XU10 P017 gnd
V§I1 N006 N007 0
V§I1~ N008 N009 0
XUn1 NC_01 NC_02 N001 nmos3
XU11 ~I gnd
XU18 I gnd
V§I7 N001 I 0
V§I8 NC_03 ~I 0

* block symbol definitions
.subckt unit VGate Signal RailIn RailOut Iout ~Iout
XU3 RailIn VGate RailOut nmos3
XU4 RailIn VGate N001 nmos3
XU5 N001 Vus Iout nmos3
XU6 N001 Vls ~Iout nmos3
XU1 VGate N002 Vus nmos3
XU2 VGate Vinv Vls nmos3
A2 Signal 0 0 0 0 Vinv 0 0 BUF Vhigh=5
A3 Vinv 0 0 0 0 N002 0 0 BUF Vhigh=5
.include engr2420.sub
.ends unit

.include engr2420.sub
.dc vg 0 5 .1
.backanno
.end
