Version 4
SHEET 1 880 680
WIRE 128 160 128 96
WIRE 128 160 96 160
WIRE 208 160 192 160
WIRE 128 224 128 160
FLAG 96 160 In
FLAG 208 160 Out
SYMBOL cktsym\\pmos3 192 96 R0
SYMATTR InstName U1
SYMBOL cktsym\\nmos3 192 224 R0
SYMATTR InstName U2
SYMBOL cktsym\\vdd 192 32 R0
SYMATTR InstName U3
SYMBOL cktsym\\gnd 192 288 R0
SYMATTR InstName U4
SYMBOL cktsym\\vdd -48 96 R0
SYMATTR InstName U5
SYMBOL cktsym\\vsource -48 160 R0
SYMATTR Value 5
SYMATTR InstName V1
SYMBOL cktsym\\gnd -48 224 R0
SYMATTR InstName U6
TEXT 56 392 Left 2 !.include engr2420.sub
