Version 4
SHEET 1 880 680
WIRE 128 160 128 96
WIRE 128 160 96 160
WIRE 208 160 192 160
WIRE 128 224 128 160
FLAG 96 160 In
FLAG 208 160 Out
FLAG 192 32 Vp
FLAG 192 288 Vn
SYMBOL cktsym\\pmos3 192 96 R0
SYMATTR InstName U1
SYMATTR Value2 M=3.5
SYMBOL cktsym\\nmos3 192 224 R0
SYMATTR InstName U2
TEXT 56 336 Left 2 !.include engr2420.sub
