Version 4
SHEET 1 880 680
WIRE 208 112 176 112
WIRE 240 112 208 112
WIRE 208 176 208 112
WIRE 208 176 112 176
WIRE 336 176 304 176
WIRE 368 176 352 176
WIRE 160 304 112 304
WIRE 208 304 176 304
WIRE 256 304 208 304
WIRE 304 304 272 304
WIRE 208 336 208 304
FLAG 48 240 V1
FLAG 368 240 V2
FLAG 144 400 Vb
FLAG -128 80 V1
FLAG -144 304 V2
FLAG -272 80 Vb
FLAG 368 176 Vout
SYMBOL cktsym\\pmos3 304 112 R0
SYMATTR InstName U1
SYMBOL cktsym\\pmos3 112 112 M0
SYMATTR InstName U2
SYMBOL cktsym\\vdd 304 48 R0
SYMATTR InstName U3
SYMBOL cktsym\\vdd 112 48 R0
SYMATTR InstName U4
SYMBOL cktsym\\nmos3 304 240 M0
SYMATTR InstName U5
SYMBOL cktsym\\nmos3 112 240 R0
SYMATTR InstName U6
SYMBOL cktsym\\nmos3 208 400 R0
SYMATTR InstName U7
SYMBOL cktsym\\gnd 208 464 R0
SYMATTR InstName U8
SYMBOL cktsym\\vsource -128 144 R0
WINDOW 123 0 0 Left 0
WINDOW 39 0 0 Left 0
SYMATTR Value ""
SYMATTR InstName V1
SYMBOL cktsym\\gnd -128 208 R0
SYMATTR InstName U9
SYMBOL cktsym\\vsource -144 368 R0
WINDOW 123 0 0 Left 0
WINDOW 39 0 0 Left 0
SYMATTR Value 2.5
SYMATTR InstName V2
SYMBOL cktsym\\gnd -144 432 R0
SYMATTR InstName U10
SYMBOL cktsym\\vsource -272 144 R0
WINDOW 123 0 0 Left 0
WINDOW 39 0 0 Left 0
SYMATTR Value .7
SYMATTR InstName V3
SYMBOL cktsym\\gnd -272 208 R0
SYMATTR InstName U11
SYMBOL cktsym\\ammeter3 272 304 R90
WINDOW 0 0 8 VBottom 2
SYMATTR InstName V4
SYMBOL cktsym\\ammeter3 160 304 R270
WINDOW 0 18 8 VTop 2
SYMATTR InstName V5
SYMBOL cktsym\\ammeter3 336 176 R270
WINDOW 0 18 8 VTop 2
SYMATTR InstName V6
SYMBOL cktsym\\vsource -416 352 R0
WINDOW 123 0 0 Left 0
WINDOW 39 0 0 Left 0
SYMATTR Value 5
SYMATTR InstName V7
SYMBOL cktsym\\gnd -416 416 R0
SYMATTR InstName U12
SYMBOL cktsym\\vdd -416 288 R0
SYMATTR InstName U13
TEXT -306 508 Left 2 !.dc V1 0 5 .01 V2 2.5 3.5 4
TEXT -304 544 Left 2 !.include engr2420.sub
