Version 4
SHEET 1 880 680
WIRE 256 192 256 176
FLAG 208 112 In
FLAG 208 192 Out
FLAG 256 128 Signal
FLAG 256 192 0
SYMBOL sw 208 208 R180
SYMATTR InstName S1
SYMATTR Value MYSW
TEXT 144 272 Left 2 !.model MYSW SW(Ron=1 Roff=10M Vt=.5 Vh=-.4)
