Version 4
SHEET 1 1000 680
WIRE 656 32 528 32
WIRE 896 32 800 32
WIRE 592 96 400 96
WIRE 736 96 608 96
WIRE 832 96 736 96
WIRE 400 144 400 96
WIRE 400 144 352 144
WIRE 752 160 672 160
WIRE 528 192 352 192
WIRE 752 192 752 160
WIRE 400 224 400 144
WIRE 496 224 400 224
WIRE 576 224 560 224
WIRE 592 224 576 224
WIRE 352 240 352 192
WIRE 352 288 352 240
WIRE 352 288 320 288
WIRE 704 288 672 288
WIRE 896 288 896 160
WIRE 896 288 720 288
WIRE 928 288 896 288
WIRE 752 352 752 208
WIRE 352 368 352 288
WIRE 448 368 352 368
WIRE 528 368 512 368
WIRE 528 384 528 368
WIRE 400 416 400 224
WIRE 496 416 400 416
WIRE 608 416 560 416
WIRE 672 416 608 416
WIRE 784 480 752 480
WIRE 864 480 800 480
FLAG 64 272 Vg
FLAG 352 144 Vg
FLAG 528 368 Vinv
FLAG 608 416 Vls
FLAG 576 224 Vus
FLAG 352 240 Vin
FLAG 928 288 Vout
FLAG 864 480 ~Vout
SYMBOL cktsym\\nmos3 736 32 R270
WINDOW 0 27 -26 VRight 0
SYMATTR InstName U3
SYMBOL cktsym\\nmos3 672 96 R0
SYMATTR InstName U4
SYMBOL cktsym\\nmos3 672 224 R0
SYMATTR InstName U5
SYMBOL cktsym\\nmos3 752 416 R0
SYMATTR InstName U6
SYMBOL switch 528 224 R0
SYMATTR InstName X1
SYMBOL switch 528 416 R0
SYMATTR InstName X2
SYMBOL Digital\\inv 448 304 R0
SYMATTR InstName A2
SYMBOL cktsym\\vsource 64 336 R0
SYMATTR Value 5
SYMATTR InstName Vg
SYMBOL cktsym\\vsource 64 128 R0
WINDOW 123 0 0 Left 0
WINDOW 39 0 0 Left 0
SYMATTR Value 5
SYMATTR InstName Vdd
SYMBOL cktsym\\vdd 64 64 R0
SYMATTR InstName U1
SYMBOL cktsym\\vdd 528 32 R0
SYMATTR InstName U2
SYMBOL cktsym\\vdd 320 288 R0
SYMATTR InstName U7
SYMBOL cktsym\\ammeter1 704 288 R270
WINDOW 0 18 8 VTop 2
SYMATTR InstName Iout
SYMBOL cktsym\\ammeter1 752 192 R0
SYMATTR InstName Ilsd
SYMBOL cktsym\\ammeter1 784 480 R270
WINDOW 0 18 8 VTop 2
SYMATTR InstName ~Iout
SYMBOL cktsym\\gnd 64 192 R0
SYMATTR InstName U8
SYMBOL cktsym\\gnd 64 400 R0
SYMATTR InstName U9
SYMBOL cktsym\\gnd 448 384 R0
SYMATTR InstName U10
SYMBOL cktsym\\ammeter1 592 96 R270
WINDOW 0 18 8 VTop 2
SYMATTR InstName Ig
SYMBOL cktsym\\ammeter1 592 224 R270
WINDOW 0 18 8 VTop 2
SYMATTR InstName Iusg
SYMBOL cktsym\\ammeter1 672 416 R270
WINDOW 0 18 8 VTop 2
SYMATTR InstName ilsg
SYMBOL cktsym\\ammeter1 656 32 R270
WINDOW 0 18 8 VTop 2
SYMATTR InstName Id
SYMBOL cktsym\\nmos3 896 96 R0
SYMATTR InstName U11
TEXT 456 640 Left 2 !.include engr2420.sub
TEXT 56 448 Left 2 !.dc Vg 0 5 0.01 ;
