Version 4
SHEET 1 880 680
WIRE 272 160 208 160
WIRE 336 224 272 224
FLAG 336 96 Vpos
FLAG 208 160 VGate
FLAG 336 224 RightRail
FLAG 144 224 LeftRail
SYMBOL cktsym\\nmos3 208 224 R90
WINDOW 0 27 -26 VRight 0
SYMATTR InstName U1
SYMATTR SpiceLine M=2
SYMBOL cktsym\\nmos3 336 160 R0
SYMATTR InstName U2
TEXT 64 336 Left 2 !.include engr2420.sub
