Version 4
SHEET 1 948 680
WIRE 672 32 528 32
WIRE 608 96 400 96
WIRE 736 96 608 96
WIRE 400 144 400 96
WIRE 400 144 352 144
WIRE 752 160 672 160
WIRE 528 192 352 192
WIRE 400 224 400 144
WIRE 496 224 400 224
WIRE 608 224 560 224
WIRE 352 288 352 192
WIRE 352 288 320 288
WIRE 832 288 672 288
WIRE 752 352 752 160
WIRE 352 368 352 288
WIRE 448 368 352 368
WIRE 528 368 512 368
WIRE 528 384 528 368
WIRE 400 416 400 224
WIRE 496 416 400 416
WIRE 688 416 560 416
WIRE 816 480 752 480
FLAG 352 144 VG
FLAG 528 32 RailIn
FLAG 800 32 RailOut
FLAG 832 288 Iout
FLAG 816 480 ~Iout
FLAG 320 288 Signal
SYMBOL cktsym\\nmos3 736 32 R270
WINDOW 0 27 -26 VRight 0
SYMATTR InstName U3
SYMBOL cktsym\\nmos3 672 96 R0
SYMATTR InstName U4
SYMBOL cktsym\\nmos3 672 224 R0
SYMATTR InstName U5
SYMBOL cktsym\\nmos3 752 416 R0
SYMATTR InstName U6
SYMBOL switch 528 224 R0
SYMATTR InstName X1
SYMBOL switch 528 416 R0
SYMATTR InstName X2
SYMBOL Digital\\inv 448 304 R0
SYMATTR InstName A2
TEXT 432 568 Left 2 !.include engr2420.sub
