Version 4
SHEET 1 880 680
WIRE 336 -64 256 -64
WIRE 512 -64 464 -64
WIRE 80 0 64 0
WIRE 272 0 80 0
WIRE 400 0 272 0
WIRE 416 64 336 64
WIRE 64 128 64 0
WIRE 112 128 64 128
WIRE 256 128 240 128
WIRE 272 128 256 128
WIRE -208 192 -304 192
WIRE -96 192 -128 192
WIRE -48 192 -96 192
WIRE 176 192 32 192
WIRE 496 192 336 192
WIRE 592 192 512 192
WIRE 416 256 416 64
WIRE 64 320 64 128
WIRE 128 320 64 320
WIRE 288 320 256 320
WIRE 352 320 288 320
WIRE -96 384 -96 192
WIRE 112 384 -96 384
WIRE 192 384 112 384
WIRE 496 384 416 384
WIRE 576 384 512 384
FLAG 80 0 Vgate
FLAG 256 -64 RailIn
FLAG 512 -64 RailOut
FLAG 592 192 Iout
FLAG 576 384 ~Iout
FLAG 112 384 Vinv
FLAG 288 320 Vls
FLAG 256 128 Vus
FLAG -304 192 Signal
SYMBOL cktsym\\nmos3 400 -64 R270
WINDOW 0 27 -26 VRight 0
SYMATTR InstName U1
SYMBOL cktsym\\nmos3 336 0 R0
SYMATTR InstName U2
SYMBOL cktsym\\nmos3 336 128 R0
SYMATTR InstName U3
SYMBOL cktsym\\nmos3 416 320 R0
SYMATTR InstName U4
SYMBOL cktsym\\nmos3 176 128 R270
WINDOW 0 27 -26 VRight 0
SYMATTR InstName U5
SYMBOL cktsym\\nmos3 192 320 R270
WINDOW 0 27 -26 VRight 0
SYMATTR InstName U6
SYMBOL inverter -176 192 R0
SYMATTR InstName X1
SYMBOL inverter -16 192 R0
SYMATTR InstName X2
SYMBOL cktsym\\ammeter1 496 192 R270
WINDOW 0 18 8 VTop 2
SYMATTR InstName I1
SYMBOL cktsym\\ammeter1 496 384 R270
WINDOW 0 18 8 VTop 2
SYMATTR InstName ~I1
SYMBOL cktsym\\vdd -16 176 R0
SYMATTR InstName U7
SYMBOL cktsym\\vdd -176 176 R0
SYMATTR InstName U9
SYMBOL cktsym\\gnd -176 208 R0
SYMATTR InstName U8
SYMBOL cktsym\\gnd -16 208 R0
SYMATTR InstName U10
TEXT 16 464 Left 2 !.include engr2420.sub
