Version 4
SHEET 1 948 680
WIRE 672 32 528 32
WIRE 608 96 400 96
WIRE 736 96 608 96
WIRE 400 144 400 96
WIRE 400 144 352 144
WIRE 752 160 672 160
WIRE 400 224 400 144
WIRE 448 224 400 224
WIRE 592 224 576 224
WIRE 608 224 592 224
WIRE 208 288 192 288
WIRE 352 288 272 288
WIRE 416 288 352 288
WIRE 512 288 480 288
WIRE 832 288 672 288
WIRE 752 352 752 160
WIRE 400 416 400 224
WIRE 464 416 400 416
WIRE 496 416 464 416
WIRE 592 416 560 416
WIRE 624 416 592 416
WIRE 688 416 624 416
WIRE 352 480 352 288
WIRE 448 480 352 480
WIRE 528 480 448 480
WIRE 816 480 752 480
FLAG 352 144 VGate
FLAG 528 32 RailIn
FLAG 800 32 RailOut
FLAG 832 288 Iout
FLAG 816 480 ~Iout
FLAG 448 480 Vinv
FLAG 624 416 Vls
FLAG 592 224 Vus
FLAG 192 288 Signal
SYMBOL cktsym\\nmos3 736 32 R270
WINDOW 0 27 -26 VRight 0
SYMATTR InstName U3
SYMBOL cktsym\\nmos3 672 96 R0
SYMATTR InstName U4
SYMBOL cktsym\\nmos3 672 224 R0
SYMATTR InstName U5
SYMBOL cktsym\\nmos3 752 416 R0
SYMATTR InstName U6
SYMBOL cktsym\\nmos3 512 224 R270
WINDOW 0 27 -26 VRight 0
SYMATTR InstName U1
SYMBOL cktsym\\nmos3 528 416 R270
WINDOW 0 27 -26 VRight 0
SYMATTR InstName U2
SYMBOL Digital\\inv 208 224 R0
WINDOW 0 3 2 Left 2
WINDOW 3 3 25 Left 2
SYMATTR InstName A2
SYMATTR Value Vhigh=5
SYMBOL Digital\\inv 416 224 R0
WINDOW 0 10 131 Left 2
WINDOW 3 5 110 Left 2
SYMATTR InstName A3
SYMATTR Value Vhigh=5
TEXT 432 568 Left 2 !.include engr2420.sub
